*SPEF "IEEE 1481-1998"
*DESIGN "Adder"
*DATE "Wed May 24 17:05:32 2017"
*VENDOR "Silicon Perspective, A Cadence Company"
*PROGRAM "First Encounter"
*VERSION "08.10-p004_1"
*DESIGN_FLOW "PIN_CAP NONE" "NAME_SCOPE LOCAL"
*DIVIDER /
*DELIMITER :
*BUS_DELIMITER []
*T_UNIT 1 NS
*C_UNIT 1 PF
*R_UNIT 1 OHM
*L_UNIT 1 HENRY

*NAME_MAP

*1 clock__L2_N0
*2 clock__L1_N0
*3 Sum[8]
*4 Sum[7]
*5 Sum[6]
*6 Sum[5]
*7 Sum[4]
*8 Sum[3]
*9 Sum[2]
*10 Sum[1]
*11 Sum[0]
*12 X[7]
*13 X[6]
*14 X[5]
*15 X[4]
*16 X[3]
*17 X[2]
*18 X[1]
*19 X[0]
*20 Y[7]
*21 Y[6]
*22 Y[5]
*23 Y[4]
*24 Y[3]
*25 Y[2]
*26 Y[1]
*27 Y[0]
*28 clock
*29 Cin
*30 n19
*31 n20
*32 S[8]
*33 S[7]
*34 S[6]
*35 S[5]
*36 S[4]
*37 S[3]
*38 S[2]
*39 S[1]
*40 S[0]
*41 C[6]
*42 C[5]
*43 C[4]
*44 C[2]
*45 C[1]
*46 C[0]
*47 a0/n2
*48 a0/n3
*49 a1/n1
*50 a1/n3
*51 a2/n1
*52 a2/n3
*53 a3/n1
*54 a3/n3
*55 a4/n1
*56 a4/n3
*57 a5/n1
*58 a5/n3
*59 a6/n1
*60 a6/n3
*61 a7/n1
*62 a7/n3
*63 clock__L2_I0
*64 clock__L1_I0
*65 a0/U2
*66 a0/U3
*67 a0/U4
*68 a0/U1
*69 a1/U2
*70 a1/U3
*71 a1/U4
*72 a1/U1
*73 a2/U2
*74 a2/U3
*75 a2/U4
*76 a2/U1
*77 a3/U2
*78 a3/U3
*79 a3/U4
*80 a3/U1
*81 a4/U2
*82 a4/U3
*83 a4/U4
*84 a4/U1
*85 a5/U2
*86 a5/U3
*87 a5/U4
*88 a5/U1
*89 a6/U2
*90 a6/U3
*91 a6/U4
*92 a6/U1
*93 a7/U2
*94 a7/U3
*95 a7/U4
*96 a7/U1
*97 Sum_reg_0_
*98 Sum_reg_1_
*99 Sum_reg_2_
*100 Sum_reg_3_
*101 Sum_reg_4_
*102 Sum_reg_5_
*103 Sum_reg_6_
*104 Sum_reg_7_
*105 Sum_reg_8_
*106 U3


*PORTS

*3 O *C 47 90
*4 O *C 47 90
*5 O *C 90 45
*6 O *C 47 0
*7 O *C 47 0
*8 O *C 42 0
*9 O *C 0 44
*10 O *C 0 47
*11 O *C 0 47
*28 I *C 90 45
*12 I *C 45 90
*13 I *C 45 0
*14 I *C 47 0
*15 I *C 44 0
*16 I *C 42 0
*17 I *C 46 0
*18 I *C 0 45
*19 I *C 45 90
*20 I *C 45 90
*21 I *C 44 0
*22 I *C 48 0
*23 I *C 44 0
*24 I *C 42 0
*25 I *C 46 0
*26 I *C 0 45
*27 I *C 45 90
*29 I *C 44 90


*D_NET *1 0.0061067

*CONN
*I *101:CK I *C 50 41 *L 0.000983 *D DFF_X2
*I *102:CK I *C 50 42 *L 0.000983 *D DFF_X2
*I *105:CK I *C 50 48 *L 0.000983 *D DFF_X2
*I *103:CK I *C 46 45 *L 0.000983 *D DFF_X2
*I *104:CK I *C 50 49 *L 0.000983 *D DFF_X2
*I *63:ZN O *C 46 45 *L 0 *D INV_X4
*I *98:CK I *C 44 46 *L 0.000983 *D DFF_X2
*I *99:CK I *C 43 44 *L 0.000983 *D DFF_X2
*I *97:CK I *C 43 48 *L 0.000983 *D DFF_X2
*I *100:CK I *C 45 42 *L 0.000983 *D DFF_X2

*CAP
1 *1:0 6.18069e-05
2 *1:1 6.18069e-05
3 *1:2 4.07386e-06
4 *1:3 2.50992e-06
5 *101:CK 4.07386e-06
6 *1:5 2.50992e-06
7 *1:6 0.000125068
8 *1:7 0.000500271
9 *1:8 0.000714673
10 *1:9 2.50992e-06
11 *1:10 0.000428804
12 *1:11 0.000431707
13 *1:12 2.50992e-06
14 *1:13 8.93342e-05
15 *1:14 2.50992e-06
16 *1:15 0.00050324
17 *1:16 8.47099e-06
18 *1:17 2.63542e-05
19 *1:18 2.50992e-06
20 *1:19 0.000271072
21 *1:20 2.60405e-05
22 *1:21 8.47099e-06
23 *1:22 2.63542e-05
24 *1:23 8.47099e-06
25 *1:24 0.000199539
26 *1:25 8.47099e-06
27 *1:26 4.98847e-05
28 *1:27 4.07386e-06
29 *1:28 7.87488e-05
30 *1:29 8.47099e-06
31 *1:30 0.000357337
32 *1:31 3.23153e-05
33 *1:32 2.38443e-05
34 *102:CK 4.07386e-06
35 *1:34 7.87488e-05
36 *1:35 4.07386e-06
37 *1:36 0.000285869
38 *1:37 0.000375203
39 *1:38 2.38443e-05
40 *1:39 1.97425e-05
41 *1:40 4.07386e-06
42 *105:CK 4.07386e-06
43 *1:42 0.000160802
44 *1:43 8.78473e-06
45 *1:44 0.000142935
46 *1:45 0.000110437
47 *1:46 1.97425e-05
48 *103:CK 1.97425e-05
49 *104:CK 4.07386e-06
50 *1:49 0.000110437
51 *1:50 8.78473e-06
52 *1:51 8.03175e-05
53 *1:52 0.000110437
54 *63:ZN 1.97425e-05
55 *1:54 0.000110437
56 *1:55 2.60405e-05
57 *1:56 8.03175e-05
58 *1:57 2.60405e-05
59 *1:58 4.42374e-05
60 *1:59 2.60405e-05
61 *1:60 8.47099e-06
62 *1:61 2.60405e-05
63 *1:62 4.42374e-05
64 *1:63 4.07386e-06
65 *1:64 8.47099e-06
66 *1:65 4.07386e-06
67 *1:66 4.07386e-06
68 *98:CK 4.07386e-06
69 *1:68 4.07386e-06
70 *99:CK 4.07386e-06
71 *97:CK 4.07386e-06
72 *100:CK 4.07386e-06

*RES
1 *1:68 *100:CK 0.19
2 *1:66 *97:CK 0.19
3 *1:65 *99:CK 0.19
4 *1:64 *1:68 6
5 *1:63 *98:CK 0.19
6 *1:62 *1:66 6
7 *1:61 *1:65 6
8 *1:60 *1:64 0.241071
9 *1:59 *1:63 6
10 *1:58 *1:62 1.25893
11 *1:57 *1:61 0.741071
12 *1:56 *1:60 5
13 *1:55 *1:59 0.741071
14 *1:54 *1:58 5
15 *1:52 *1:57 5
16 *1:51 *1:56 2.28571
17 *1:50 *1:55 5
18 *1:49 *1:54 3.14286
19 *1:46 *63:ZN 0.920769
20 *1:45 *1:52 3.14286
21 *1:44 *1:51 5
22 *1:43 *1:50 0.25
23 *1:42 *1:49 5
24 *1:40 *104:CK 0.19
25 *1:39 *103:CK 0.920769
26 *1:38 *1:46 6
27 *1:37 *1:45 5
28 *1:37 *1:44 1.68
29 *1:36 *1:43 5
30 *1:36 *1:42 1.89
31 *1:35 *105:CK 0.19
32 *1:34 *1:40 6
33 *1:32 *1:39 6
34 *1:31 *1:38 0.678571
35 *1:30 *1:37 2.73
36 *1:30 *1:36 1.47
37 *1:29 *1:35 6
38 *1:28 *1:34 2.24107
39 *1:27 *102:CK 0.19
40 *1:26 *1:32 0.678571
41 *1:25 *1:31 0.241071
42 *1:24 *1:30 5
43 *1:23 *1:29 0.241071
44 *1:22 *1:28 5
45 *1:21 *1:27 6
46 *1:20 *1:26 0.741071
47 *1:19 *1:25 5
48 *1:19 *1:24 5.67857
49 *1:18 *1:23 5
50 *1:17 *1:22 0.75
51 *1:16 *1:21 0.241071
52 *1:15 *1:20 5
53 *1:15 *1:19 2.03571
54 *1:14 *1:18 0.0714286
55 *1:13 *1:17 5
56 *1:12 *1:16 5
57 *1:11 *1:15 12.2857
58 *1:10 *1:14 5
59 *1:10 *1:13 1.05
60 *1:9 *1:12 0.0714286
61 *1:8 *1:11 5
62 *1:8 *1:10 3.99
63 *1:7 *1:9 5
64 *1:7 *1:8 4.41
65 *1:6 *1:7 1.47
66 *1:5 *1:6 5
67 *1:3 *1:5 0.0714286
68 *1:2 *101:CK 0.19
69 *1:1 *1:3 5
70 *1:0 *1:2 6
71 *1:0 *1:1 1.75893
*END

*D_NET *2 0.00128123

*CONN
*I *64:ZN O *C 50 45 *L 0 *D INV_X8
*I *63:A I *C 46 45 *L 0.00187 *D INV_X4

*CAP
1 *2:0 2.38443e-05
2 *2:1 7.2474e-05
3 *2:2 1.53553e-05
4 *2:3 4.86298e-05
5 *64:ZN 1.53553e-05
6 *2:5 0.00050073
7 *2:6 0.00050073
8 *2:7 8.47099e-06
9 *2:8 3.23153e-05
10 *2:9 2.38443e-05
11 *2:10 1.97425e-05
12 *63:A 1.97425e-05

*RES
1 *2:10 *63:A 0.920769
2 *2:9 *2:10 6
3 *2:8 *2:9 0.678571
4 *2:7 *2:8 0.241071
5 *2:6 *2:7 5
6 *2:5 *2:6 14.25
7 *2:3 *2:5 5
8 *2:2 *64:ZN 0.716154
9 *2:1 *2:3 1.38393
10 *2:0 *2:2 6
11 *2:0 *2:1 0.678571
*END

*D_NET *3 0.0107299

*CONN
*P *3 O *C 47 90 *L 0
*I *105:Q O *C 47 47 *L 0 *D DFF_X2

*CAP
1 *3:0 0.00535649
2 *3 0.00535649
3 *3:2 8.46109e-06
4 *105:Q 8.46109e-06

*RES
1 *3:2 *105:Q 0.394615
2 *3:0 *3:2 6
3 *3:0 *3 152.438
*END

*D_NET *4 0.0101925

*CONN
*I *104:Q O *C 47 50 *L 0 *D DFF_X2
*P *4 O *C 47 90 *L 0

*CAP
1 *4:0 0.00505593
2 *4:1 0.00505593
3 *4:2 8.46109e-06
4 *4:3 2.50992e-06
5 *104:Q 8.46109e-06
6 *4:5 2.50992e-06
7 *4:6 2.93527e-05
8 *4 2.93527e-05

*RES
1 *4:6 *4 0.345
2 *4:5 *4:6 5
3 *4:3 *4:5 0.0714286
4 *4:2 *104:Q 0.394615
5 *4:1 *4:3 5
6 *4:0 *4:2 6
7 *4:0 *4:1 143.884
*END

*D_NET *5 0.010371

*CONN
*I *103:Q O *C 49 45 *L 0 *D DFF_X2
*P *5 O *C 90 45 *L 0

*CAP
1 *5:0 2.38443e-05
2 *5:1 2.79229e-05
3 *5:2 1.53553e-05
4 *5:3 4.07863e-06
5 *103:Q 1.53553e-05
6 *5:5 0.00514221
7 *5 0.00514221

*RES
1 *5:5 *5 146.339
2 *5:3 *5:5 5
3 *5:2 *103:Q 0.716154
4 *5:1 *5:3 0.116071
5 *5:0 *5:2 6
6 *5:0 *5:1 0.678571
*END

*D_NET *6 0.0104977

*CONN
*P *6 O *C 47 0 *L 0
*I *102:Q O *C 47 42 *L 0 *D DFF_X2

*CAP
1 *6:0 0.00524041
2 *6 0.00524041
3 *6:2 8.46109e-06
4 *102:Q 8.46109e-06

*RES
1 *6:2 *102:Q 0.394615
2 *6:0 *6:2 6
3 *6:0 *6 149.134
*END

*D_NET *7 0.0104224

*CONN
*I *101:Q O *C 47 41 *L 0 *D DFF_X2
*P *7 O *C 47 0 *L 0

*CAP
1 *7:0 2.38443e-05
2 *7:1 0.00500008
3 *7:2 8.46109e-06
4 *7:3 0.00497624
5 *101:Q 8.46109e-06
6 *7:5 1.50595e-05
7 *7:6 1.50595e-05
8 *7:7 0.000187602
9 *7 0.000187602

*RES
1 *7:7 *7 2.205
2 *7:6 *7:7 5
3 *7:5 *7:6 0.428571
4 *7:3 *7:5 5
5 *7:2 *101:Q 0.394615
6 *7:1 *7:3 141.616
7 *7:0 *7:2 6
8 *7:0 *7:1 0.678571
*END

*D_NET *8 0.0104977

*CONN
*P *8 O *C 42 0 *L 0
*I *100:Q O *C 42 42 *L 0 *D DFF_X2

*CAP
1 *8:0 0.00524041
2 *8 0.00524041
3 *8:2 8.46109e-06
4 *100:Q 8.46109e-06

*RES
1 *8:2 *100:Q 0.394615
2 *8:0 *8:2 6
3 *8:0 *8 149.134
*END

*D_NET *9 0.0101589

*CONN
*I *99:Q O *C 40 44 *L 0 *D DFF_X2
*P *9 O *C 0 44 *L 0

*CAP
1 *9:0 4.07863e-06
2 *9:1 4.07863e-06
3 *9:2 8.46109e-06
4 *9:3 0.00506691
5 *99:Q 8.46109e-06
6 *9 0.00506691

*RES
1 *9:3 *9 144.196
2 *9:2 *99:Q 0.394615
3 *9:1 *9:3 5
4 *9:0 *9:2 6
5 *9:0 *9:1 0.116071
*END

*D_NET *10 0.0103973

*CONN
*I *98:Q O *C 41 47 *L 0 *D DFF_X2
*P *10 O *C 0 47 *L 0

*CAP
1 *10:0 4.07863e-06
2 *10:1 4.07863e-06
3 *10:2 8.46109e-06
4 *10:3 0.00518613
5 *98:Q 8.46109e-06
6 *10 0.00518613

*RES
1 *10:3 *10 147.589
2 *10:2 *98:Q 0.394615
3 *10:1 *10:3 5
4 *10:0 *10:2 6
5 *10:0 *10:1 0.116071
*END

*D_NET *11 0.0101589

*CONN
*I *97:Q O *C 40 47 *L 0 *D DFF_X2
*P *11 O *C 0 47 *L 0

*CAP
1 *11:0 4.07863e-06
2 *11:1 4.07863e-06
3 *11:2 8.46109e-06
4 *11:3 0.00506691
5 *97:Q 8.46109e-06
6 *11 0.00506691

*RES
1 *11:3 *11 144.196
2 *11:2 *97:Q 0.394615
3 *11:1 *11:3 5
4 *11:0 *11:2 6
5 *11:0 *11:1 0.116071
*END

*D_NET *12 0.0107305

*CONN
*P *12 I *C 45 90 *L 0
*I *94:A2 I *C 46 49 *L 0.000723 *D AOI22_X1
*I *95:A I *C 44 49 *L 0.00124 *D XOR2_X1

*CAP
1 *12:0 7.15328e-05
2 *12:1 0.00521311
3 *12:2 1.97425e-05
4 *12 0.00511554
5 *12:4 2.60405e-05
6 *94:A2 1.97425e-05
7 *12:6 9.53771e-05
8 *12:7 9.53771e-05
9 *12:8 1.25496e-06
10 *12:9 2.50992e-05
11 *12:10 2.38443e-05
12 *12:11 1.19082e-05
13 *95:A 1.19082e-05

*RES
1 *12:11 *95:A 0.555385
2 *12:10 *12:11 6
3 *12:9 *12:10 0.678571
4 *12:8 *12:9 0.0357143
5 *12:7 *12:8 5
6 *12:6 *12:7 2.71429
7 *12:4 *12:6 5
8 *12:2 *94:A2 0.920769
9 *12:1 *12:4 0.741071
10 *12:1 *12 145.58
11 *12:0 *12:2 6
12 *12:0 *12:1 2.03571
*END

*D_NET *13 0.0118054

*CONN
*I *90:A2 I *C 44 45 *L 0.000723 *D AOI22_X1
*I *91:A I *C 43 45 *L 0.00124 *D XOR2_X1
*P *13 I *C 45 0 *L 0

*CAP
1 *13:0 7.2474e-05
2 *13:1 0.000158125
3 *13:2 2.47855e-05
4 *13:3 2.38443e-05
5 *13:4 8.65923e-05
6 *13:5 4.07386e-06
7 *13:6 1.19082e-05
8 *13:7 0.000143066
9 *90:A2 4.07386e-06
10 *91:A 1.19082e-05
11 *13:10 0.000143066
12 *13:11 0.00556073
13 *13 0.00556073

*RES
1 *13:11 *13 158.25
2 *13:10 *13:11 5
3 *13:7 *13:10 4.07143
4 *13:6 *91:A 0.555385
5 *13:5 *90:A2 0.19
6 *13:4 *13:7 5
7 *13:3 *13:6 6
8 *13:2 *13:5 6
9 *13:1 *13:4 2.46429
10 *13:1 *13:3 0.678571
11 *13:0 *13:2 0.705357
12 *13:0 *13:1 1.35714
*END

*D_NET *14 0.0111854

*CONN
*P *14 I *C 47 0 *L 0
*I *87:A I *C 48 43 *L 0.00124 *D XOR2_X1
*I *86:A2 I *C 47 44 *L 0.000723 *D AOI22_X1

*CAP
1 *14:0 4.76885e-05
2 *14:1 0.00552058
3 *14:2 1.19082e-05
4 *14:3 1.63145e-05
5 *14 0.00545657
6 *87:A 1.19082e-05
7 *14:6 4.76885e-05
8 *14:7 4.76885e-05
9 *14:8 8.47099e-06
10 *14:9 8.47099e-06
11 *14:10 4.07386e-06
12 *86:A2 4.07386e-06

*RES
1 *14:10 *86:A2 0.19
2 *14:9 *14:10 6
3 *14:8 *14:9 0.241071
4 *14:7 *14:8 5
5 *14:6 *14:7 1.35714
6 *14:3 *14:6 5
7 *14:2 *87:A 0.555385
8 *14:1 *14 155.286
9 *14:1 *14:3 0.464286
10 *14:0 *14:2 6
11 *14:0 *14:1 1.35714
*END

*D_NET *15 0.010448

*CONN
*I *82:A2 I *C 45 41 *L 0.000723 *D AOI22_X1
*I *83:A I *C 44 41 *L 0.00124 *D XOR2_X1
*P *15 I *C 44 0 *L 0

*CAP
1 *15:0 7.2474e-05
2 *15:1 2.47855e-05
3 *15:2 0.00493953
4 *15:3 4.07386e-06
5 *15:4 2.38443e-05
6 *15:5 0.004868
7 *82:A2 4.07386e-06
8 *15:7 1.19082e-05
9 *15:8 2.50992e-06
10 *83:A 1.19082e-05
11 *15:10 2.50992e-06
12 *15:11 0.000241202
13 *15 0.000241202

*RES
1 *15:11 *15 2.835
2 *15:10 *15:11 5
3 *15:8 *15:10 0.0714286
4 *15:7 *83:A 0.555385
5 *15:5 *15:8 5
6 *15:4 *15:7 6
7 *15:3 *82:A2 0.19
8 *15:2 *15:5 138.536
9 *15:2 *15:4 0.678571
10 *15:1 *15:3 6
11 *15:0 *15:2 1.35714
12 *15:0 *15:1 0.705357
*END

*D_NET *16 0.0106596

*CONN
*I *79:A I *C 43 41 *L 0.00124 *D XOR2_X1
*P *16 I *C 42 0 *L 0
*I *78:A2 I *C 41 41 *L 0.000723 *D AOI22_X1

*CAP
1 *16:0 4.76885e-05
2 *16:1 4.89435e-05
3 *16:2 1.19082e-05
4 *16:3 0.00510518
5 *79:A 1.19082e-05
6 *16 0.00510393
7 *16:6 9.53771e-05
8 *16:7 9.53771e-05
9 *16:8 2.60405e-05
10 *16:9 4.98847e-05
11 *16:10 2.38443e-05
12 *16:11 1.97425e-05
13 *78:A2 1.97425e-05

*RES
1 *16:11 *78:A2 0.920769
2 *16:10 *16:11 6
3 *16:9 *16:10 0.678571
4 *16:8 *16:9 0.741071
5 *16:7 *16:8 5
6 *16:6 *16:7 2.71429
7 *16:3 *16:6 5
8 *16:3 *16 145.25
9 *16:2 *79:A 0.555385
10 *16:1 *16:3 0.0357143
11 *16:0 *16:2 6
12 *16:0 *16:1 1.35714
*END

*D_NET *17 0.0110718

*CONN
*I *75:A I *C 45 43 *L 0.00124 *D XOR2_X1
*P *17 I *C 46 0 *L 0
*I *74:A2 I *C 46 42 *L 0.000723 *D AOI22_X1

*CAP
1 *17:0 4.76885e-05
2 *17:1 0.000233109
3 *17:2 1.19082e-05
4 *17:3 0.00545657
5 *75:A 1.19082e-05
6 *17 0.00527115
7 *17:6 1.97425e-05
8 *74:A2 1.97425e-05

*RES
1 *17:6 *74:A2 0.920769
2 *17:3 *17:6 6
3 *17:3 *17 150.009
4 *17:2 *75:A 0.555385
5 *17:1 *17:3 5.27679
6 *17:0 *17:2 6
7 *17:0 *17:1 1.35714
*END

*D_NET *18 0.0106169

*CONN
*I *70:A2 I *C 40 46 *L 0.000723 *D AOI22_X1
*I *71:A I *C 40 45 *L 0.00124 *D XOR2_X1
*P *18 I *C 0 45 *L 0

*CAP
1 *18:0 0.000185421
2 *18:1 0.000225579
3 *18:2 4.07386e-06
4 *18:3 2.38443e-05
5 *18:4 1.63145e-05
6 *70:A2 4.07386e-06
7 *18:6 1.19082e-05
8 *18:7 0.00506691
9 *71:A 1.19082e-05
10 *18 0.00506691

*RES
1 *18:7 *18 144.196
2 *18:6 *71:A 0.555385
3 *18:4 *18:7 5
4 *18:3 *18:6 6
5 *18:2 *70:A2 0.19
6 *18:1 *18:4 0.464286
7 *18:1 *18:3 0.678571
8 *18:0 *18:2 6
9 *18:0 *18:1 5.27679
*END

*D_NET *19 0.0114464

*CONN
*I *67:A I *C 46 46 *L 0.00124 *D XOR2_X1
*P *19 I *C 45 90 *L 0
*I *66:A2 I *C 45 46 *L 0.000723 *D AOI22_X1

*CAP
1 *19:0 3.3884e-05
2 *19:1 3.3884e-05
3 *19:2 1.19082e-05
4 *19:3 9.53771e-05
5 *67:A 1.19082e-05
6 *19:5 0.00016691
7 *19:6 7.15328e-05
8 *19:7 9.09847e-06
9 *19:8 0.00545783
10 *19:9 3.29427e-05
11 *19 0.00545783
12 *19:11 2.38443e-05
13 *19:12 1.97425e-05
14 *66:A2 1.97425e-05

*RES
1 *19:12 *66:A2 0.920769
2 *19:11 *19:12 6
3 *19:9 *19:11 0.678571
4 *19:8 *19 155.321
5 *19:7 *19:9 0.258929
6 *19:6 *19:8 5
7 *19:5 *19:7 5
8 *19:5 *19:6 2.03571
9 *19:3 *19:5 2.71429
10 *19:2 *67:A 0.555385
11 *19:1 *19:3 5
12 *19:0 *19:2 6
13 *19:0 *19:1 0.964286
*END

*D_NET *20 0.0110201

*CONN
*I *94:A1 I *C 46 50 *L 0.000778 *D AOI22_X1
*P *20 I *C 45 90 *L 0
*I *95:B I *C 44 49 *L 0.00135 *D XOR2_X1

*CAP
1 *20:0 2.38443e-05
2 *20:1 3.23153e-05
3 *20:2 1.19082e-05
4 *20:3 8.47099e-06
5 *94:A1 1.19082e-05
6 *20:5 0.000106672
7 *20:6 0.000214598
8 *20:7 0.000107927
9 *20:8 0.005175
10 *20:9 3.10603e-05
11 *20 0.005175
12 *20:11 5.49046e-05
13 *20:12 2.38443e-05
14 *20:13 2.13094e-05
15 *95:B 2.13094e-05

*RES
1 *20:13 *95:B 0.993846
2 *20:12 *20:13 6
3 *20:11 *20:12 0.678571
4 *20:9 *20:11 0.883929
5 *20:8 *20 60.825
6 *20:7 *20:9 5
7 *20:6 *20:8 5
8 *20:6 *20:7 3.07143
9 *20:5 *20:6 3.03571
10 *20:3 *20:5 5
11 *20:2 *94:A1 0.555385
12 *20:1 *20:3 0.241071
13 *20:0 *20:2 6
14 *20:0 *20:1 0.678571
*END

*D_NET *21 0.0119293

*CONN
*I *90:A1 I *C 44 45 *L 0.000778 *D AOI22_X1
*P *21 I *C 44 0 *L 0
*I *91:B I *C 43 45 *L 0.00135 *D XOR2_X1

*CAP
1 *21:0 2.66679e-05
2 *21:1 2.66679e-05
3 *21:2 3.76488e-06
4 *21:3 1.19082e-05
5 *21:4 3.76488e-06
6 *90:A1 1.19082e-05
7 *21:6 7.14673e-05
8 *21:7 7.14673e-05
9 *21:8 7.14673e-05
10 *21:9 7.52977e-05
11 *21:10 7.14673e-05
12 *21:11 7.52977e-05
13 *21:12 0.00565485
14 *21:13 4.07863e-06
15 *21 0.00565485
16 *21:15 2.79229e-05
17 *21:16 2.38443e-05
18 *21:17 2.13094e-05
19 *91:B 2.13094e-05

*RES
1 *21:17 *91:B 0.993846
2 *21:16 *21:17 6
3 *21:15 *21:16 0.678571
4 *21:13 *21:15 0.116071
5 *21:12 *21 66.465
6 *21:11 *21:13 5
7 *21:10 *21:12 3
8 *21:9 *21:11 2.14286
9 *21:8 *21:10 0.84
10 *21:7 *21:9 5
11 *21:6 *21:8 3
12 *21:6 *21:7 0.84
13 *21:4 *21:6 5
14 *21:3 *90:A1 0.555385
15 *21:2 *21:4 0.107143
16 *21:1 *21:3 6
17 *21:0 *21:2 5
18 *21:0 *21:1 0.758929
*END

*D_NET *22 0.0113003

*CONN
*P *22 I *C 48 0 *L 0
*I *87:B I *C 48 44 *L 0.00135 *D XOR2_X1
*I *86:A1 I *C 47 44 *L 0.000778 *D AOI22_X1

*CAP
1 *22:0 2.38443e-05
2 *22:1 0.0055143
3 *22:2 2.50699e-06
4 *22:3 1.34908e-05
5 *22 0.00547697
6 *87:B 2.50699e-06
7 *22:6 7.15328e-05
8 *22:7 7.15328e-05
9 *22:8 2.60405e-05
10 *22:9 4.98847e-05
11 *22:10 2.38443e-05
12 *22:11 1.19082e-05
13 *86:A1 1.19082e-05

*RES
1 *22:11 *86:A1 0.555385
2 *22:10 *22:11 6
3 *22:9 *22:10 0.678571
4 *22:8 *22:9 0.741071
5 *22:7 *22:8 5
6 *22:6 *22:7 2.03571
7 *22:3 *22:6 5
8 *22:2 *87:B 0.116923
9 *22:1 *22 155.866
10 *22:1 *22:3 0.383929
11 *22:0 *22:2 6
12 *22:0 *22:1 0.678571
*END

*D_NET *23 0.0109614

*CONN
*I *82:A1 I *C 45 41 *L 0.000778 *D AOI22_X1
*I *83:B I *C 44 41 *L 0.00135 *D XOR2_X1
*P *23 I *C 44 0 *L 0

*CAP
1 *23:0 0.000111064
2 *23:1 3.95313e-05
3 *23:2 0.00482564
4 *23:3 1.19082e-05
5 *23:4 2.38443e-05
6 *23:5 0.00473026
7 *82:A1 1.19082e-05
8 *23:7 2.13094e-05
9 *23:8 6.14931e-05
10 *83:B 2.13094e-05
11 *23:10 6.14931e-05
12 *23:11 0.000142935
13 *23:12 0.000142935
14 *23:13 3.57337e-05
15 *23:14 3.57337e-05
16 *23:15 0.000178668
17 *23:16 0.000178668
18 *23:17 7.6943e-05
19 *23:18 7.6943e-05
20 *23:19 8.65609e-05
21 *23 8.65609e-05

*RES
1 *23:19 *23 0.118125
2 *23:18 *23:19 1
3 *23:17 *23:18 0.105
4 *23:16 *23:17 3
5 *23:15 *23:16 2.1
6 *23:14 *23:15 3
7 *23:13 *23:14 0.42
8 *23:12 *23:13 3
9 *23:11 *23:12 1.68
10 *23:10 *23:11 5
11 *23:8 *23:10 1.75
12 *23:7 *83:B 0.993846
13 *23:5 *23:8 5
14 *23:4 *23:7 6
15 *23:3 *82:A1 0.555385
16 *23:2 *23:5 134.616
17 *23:2 *23:4 0.678571
18 *23:1 *23:3 6
19 *23:0 *23:2 2.03571
20 *23:0 *23:1 1.125
*END

*D_NET *24 0.0109597

*CONN
*I *79:B I *C 43 41 *L 0.00135 *D XOR2_X1
*P *24 I *C 42 0 *L 0
*I *78:A1 I *C 41 41 *L 0.000778 *D AOI22_X1

*CAP
1 *24:0 2.38443e-05
2 *24:1 2.79229e-05
3 *24:2 2.13094e-05
4 *24:3 4.07863e-06
5 *79:B 2.13094e-05
6 *24:5 6.4003e-05
7 *24:6 0.000119221
8 *24:7 5.52183e-05
9 *24:8 0.00520818
10 *24:9 4.36099e-05
11 *24 0.00520818
12 *24:11 9.12985e-05
13 *24:12 4.76885e-05
14 *24:13 1.19082e-05
15 *78:A1 1.19082e-05

*RES
1 *24:13 *78:A1 0.555385
2 *24:12 *24:13 6
3 *24:11 *24:12 1.35714
4 *24:9 *24:11 1.24107
5 *24:8 *24 61.215
6 *24:7 *24:9 5
7 *24:6 *24:8 5
8 *24:6 *24:7 1.57143
9 *24:5 *24:6 1.82143
10 *24:3 *24:5 5
11 *24:2 *79:B 0.993846
12 *24:1 *24:3 0.116071
13 *24:0 *24:2 6
14 *24:0 *24:1 0.678571
*END

*D_NET *25 0.0113216

*CONN
*I *75:B I *C 45 44 *L 0.00135 *D XOR2_X1
*I *74:A1 I *C 46 42 *L 0.000778 *D AOI22_X1
*P *25 I *C 46 0 *L 0

*CAP
1 *25:0 7.15328e-05
2 *25:1 0.000312485
3 *25:2 2.50699e-06
4 *25:3 0.00537531
5 *75:B 2.50699e-06
6 *25:5 4.76885e-05
7 *25:6 0.00508667
8 *25:7 1.19082e-05
9 *25:8 4.76885e-05
10 *74:A1 1.19082e-05
11 *25:10 4.76885e-05
12 *25:11 0.000151868
13 *25 0.000151868

*RES
1 *25:11 *25 1.785
2 *25:10 *25:11 5
3 *25:8 *25:10 1.35714
4 *25:7 *74:A1 0.555385
5 *25:6 *25:8 5
6 *25:5 *25:7 6
7 *25:3 *25:6 144.759
8 *25:3 *25:5 1.35714
9 *25:2 *75:B 0.116923
10 *25:1 *25:3 6.85714
11 *25:0 *25:2 6
12 *25:0 *25:1 2.03571
*END

*D_NET *26 0.0108497

*CONN
*I *70:A1 I *C 40 47 *L 0.000778 *D AOI22_X1
*I *71:B I *C 40 45 *L 0.00135 *D XOR2_X1
*P *26 I *C 0 45 *L 0

*CAP
1 *26:0 2.38443e-05
2 *26:1 0.000264797
3 *26:2 1.19082e-05
4 *26:3 0.000295857
5 *70:A1 1.19082e-05
6 *26:5 2.38443e-05
7 *26:6 3.10603e-05
8 *26:7 2.50699e-06
9 *26:8 0.00509075
10 *71:B 2.50699e-06
11 *26 0.00509075

*RES
1 *26:8 *26 144.875
2 *26:7 *71:B 0.116923
3 *26:6 *26:8 5
4 *26:5 *26:7 6
5 *26:3 *26:6 0.883929
6 *26:3 *26:5 0.678571
7 *26:2 *70:A1 0.555385
8 *26:1 *26:3 6.85714
9 *26:0 *26:2 6
10 *26:0 *26:1 0.678571
*END

*D_NET *27 0.0115993

*CONN
*I *67:B I *C 46 46 *L 0.00135 *D XOR2_X1
*I *66:A1 I *C 45 47 *L 0.000778 *D AOI22_X1
*P *27 I *C 45 90 *L 0

*CAP
1 *27:0 3.10603e-05
2 *27:1 3.10603e-05
3 *27:2 2.50699e-06
4 *27:3 0.000119221
5 *67:B 2.50699e-06
6 *27:5 0.000189499
7 *27:6 7.02778e-05
8 *27:7 8.47099e-06
9 *27:8 1.78668e-05
10 *27:9 3.23153e-05
11 *27:10 1.78668e-05
12 *27:11 2.38443e-05
13 *27:13 1.19082e-05
14 *27:14 0.00551447
15 *66:A1 1.19082e-05
16 *27 0.00551447

*RES
1 *27:14 *27 64.815
2 *27:13 *66:A1 0.555385
3 *27:12 *27:14 3
4 *27:11 *27:13 6
5 *27:10 *27:12 3
6 *27:9 *27:11 0.678571
7 *27:8 *27:10 0.21
8 *27:7 *27:9 0.241071
9 *27:6 *27:8 5
10 *27:5 *27:7 5
11 *27:5 *27:6 2
12 *27:3 *27:5 3.39286
13 *27:2 *67:B 0.116923
14 *27:1 *27:3 5
15 *27:0 *27:2 6
16 *27:0 *27:1 0.883929
*END

*D_NET *28 0.0103634

*CONN
*I *64:A I *C 49 45 *L 0.00364 *D INV_X8
*P *28 I *C 90 45 *L 0

*CAP
1 *28:0 2.38443e-05
2 *28:1 6.74542e-05
3 *28:2 1.97425e-05
4 *28:3 4.36099e-05
5 *64:A 1.97425e-05
6 *28:5 0.00509452
7 *28 0.00509452

*RES
1 *28:5 *28 144.982
2 *28:3 *28:5 5
3 *28:2 *64:A 0.920769
4 *28:1 *28:3 1.24107
5 *28:0 *28:2 6
6 *28:0 *28:1 0.678571
*END

*D_NET *29 0.0112005

*CONN
*I *65:A I *C 44 48 *L 0.00124 *D XOR2_X1
*I *66:B2 I *C 45 47 *L 0.000668 *D AOI22_X1
*P *29 I *C 44 90 *L 0

*CAP
1 *29:0 2.38443e-05
2 *29:1 0.000226207
3 *29:2 1.19082e-05
4 *29:3 5.39633e-05
5 *29:4 0.000219932
6 *65:A 1.19082e-05
7 *29:6 2.38443e-05
8 *29:7 7.15328e-05
9 *29:8 2.38443e-05
10 *29:9 1.97425e-05
11 *29:10 0.00524699
12 *66:B2 1.97425e-05
13 *29 0.00524699

*RES
1 *29:10 *29 149.321
2 *29:9 *66:B2 0.920769
3 *29:8 *29:10 5
4 *29:7 *29:9 6
5 *29:6 *29:8 0.678571
6 *29:4 *29:7 2.03571
7 *29:3 *29:6 5
8 *29:2 *65:A 0.555385
9 *29:1 *29:4 4.22321
10 *29:1 *29:3 1.53571
11 *29:0 *29:2 6
12 *29:0 *29:1 0.678571
*END

*D_NET *30 0.000421619

*CONN
*I *77:Z O *C 40 42 *L 0 *D XOR2_X1
*I *106:A2 I *C 40 41 *L 0.000636 *D AND2_X4

*CAP
1 *30:0 0.000190127
2 *30:1 0.000190127
3 *30:2 6.26748e-06
4 *30:3 1.44152e-05
5 *77:Z 6.26748e-06
6 *106:A2 1.44152e-05

*RES
1 *30:3 *106:A2 0.672308
2 *30:2 *77:Z 0.292308
3 *30:1 *30:3 6
4 *30:0 *30:2 6
5 *30:0 *30:1 5.41071
*END

*D_NET *31 0.000485614

*CONN
*I *80:ZN O *C 41 42 *L 0 *D INV_X2
*I *106:A1 I *C 41 41 *L 0.000591 *D AND2_X4

*CAP
1 *31:0 2.38443e-05
2 *31:1 6.80817e-05
3 *31:2 1.97425e-05
4 *31:3 4.42374e-05
5 *80:ZN 1.97425e-05
6 *31:5 7.15328e-05
7 *31:6 7.15328e-05
8 *31:7 7.93763e-05
9 *31:8 7.93763e-05
10 *31:9 4.07386e-06
11 *106:A1 4.07386e-06

*RES
1 *31:9 *106:A1 0.19
2 *31:8 *31:9 6
3 *31:7 *31:8 2.25893
4 *31:6 *31:7 5
5 *31:5 *31:6 2.03571
6 *31:3 *31:5 5
7 *31:2 *80:ZN 0.920769
8 *31:1 *31:3 1.25893
9 *31:0 *31:2 6
10 *31:0 *31:1 0.678571
*END

*D_NET *32 0.000914801

*CONN
*I *105:D I *C 49 48 *L 0.00112 *D DFF_X2
*I *96:ZN O *C 46 47 *L 0 *D INV_X2

*CAP
1 *32:0 4.07863e-06
2 *32:1 4.07863e-06
3 *32:2 8.46109e-06
4 *32:3 0.000309975
5 *105:D 8.46109e-06
6 *32:5 0.000309975
7 *32:6 4.36099e-05
8 *32:7 0.000115143
9 *32:8 7.15328e-05
10 *32:9 1.97425e-05
11 *96:ZN 1.97425e-05

*RES
1 *32:9 *96:ZN 0.920769
2 *32:8 *32:9 6
3 *32:7 *32:8 2.03571
4 *32:6 *32:7 1.24107
5 *32:5 *32:6 5
6 *32:3 *32:5 8.82143
7 *32:2 *105:D 0.394615
8 *32:1 *32:3 5
9 *32:0 *32:2 6
10 *32:0 *32:1 0.116071
*END

*D_NET *33 0.00119529

*CONN
*I *104:D I *C 49 49 *L 0.00112 *D DFF_X2
*I *93:Z O *C 46 48 *L 0 *D XOR2_X1

*CAP
1 *33:0 0.000144634
2 *33:1 0.000144634
3 *33:2 8.46109e-06
4 *33:3 0.000381508
5 *104:D 8.46109e-06
6 *33:5 0.000381508
7 *33:6 2.16481e-05
8 *33:7 4.54924e-05
9 *33:8 2.38443e-05
10 *33:9 1.75489e-05
11 *93:Z 1.75489e-05

*RES
1 *33:9 *93:Z 0.818462
2 *33:8 *33:9 6
3 *33:7 *33:8 0.678571
4 *33:6 *33:7 0.616071
5 *33:5 *33:6 5
6 *33:3 *33:5 10.8571
7 *33:2 *104:D 0.394615
8 *33:1 *33:3 5
9 *33:0 *33:2 6
10 *33:0 *33:1 4.11607
*END

*D_NET *34 0.000612972

*CONN
*I *103:D I *C 47 45 *L 0.00112 *D DFF_X2
*I *89:Z O *C 45 45 *L 0 *D XOR2_X1

*CAP
1 *34:0 2.38443e-05
2 *34:1 4.54924e-05
3 *34:2 1.53553e-05
4 *34:3 2.16481e-05
5 *103:D 1.53553e-05
6 *34:5 0.000190754
7 *34:6 0.000190754
8 *34:7 1.34908e-05
9 *34:8 3.73351e-05
10 *34:9 2.38443e-05
11 *34:10 1.75489e-05
12 *89:Z 1.75489e-05

*RES
1 *34:10 *89:Z 0.818462
2 *34:9 *34:10 6
3 *34:8 *34:9 0.678571
4 *34:7 *34:8 0.383929
5 *34:6 *34:7 5
6 *34:5 *34:6 5.42857
7 *34:3 *34:5 5
8 *34:2 *103:D 0.716154
9 *34:1 *34:3 0.616071
10 *34:0 *34:2 6
11 *34:0 *34:1 0.678571
*END

*D_NET *35 0.00052765

*CONN
*I *85:Z O *C 49 43 *L 0 *D XOR2_X1
*I *102:D I *C 49 42 *L 0.00112 *D DFF_X2

*CAP
1 *35:0 2.38443e-05
2 *35:1 0.00013334
3 *35:2 1.75489e-05
4 *35:3 0.000109495
5 *85:Z 1.75489e-05
6 *35:5 4.76885e-05
7 *35:6 4.76885e-05
8 *35:7 5.6787e-05
9 *35:8 5.6787e-05
10 *35:9 8.46109e-06
11 *102:D 8.46109e-06

*RES
1 *35:9 *102:D 0.394615
2 *35:8 *35:9 6
3 *35:7 *35:8 1.61607
4 *35:6 *35:7 5
5 *35:5 *35:6 1.35714
6 *35:3 *35:5 5
7 *35:2 *85:Z 0.818462
8 *35:1 *35:3 3.11607
9 *35:0 *35:2 6
10 *35:0 *35:1 0.678571
*END

*D_NET *36 0.000901629

*CONN
*I *101:D I *C 49 41 *L 0.00112 *D DFF_X2
*I *81:Z O *C 46 41 *L 0 *D XOR2_X1

*CAP
1 *36:0 3.92175e-05
2 *36:1 3.92175e-05
3 *36:2 8.46109e-06
4 *36:3 0.000357664
5 *101:D 8.46109e-06
6 *36:5 0.000357664
7 *36:6 4.07863e-06
8 *36:7 2.79229e-05
9 *36:8 2.38443e-05
10 *36:9 1.75489e-05
11 *81:Z 1.75489e-05

*RES
1 *36:9 *81:Z 0.818462
2 *36:8 *36:9 6
3 *36:7 *36:8 0.678571
4 *36:6 *36:7 0.116071
5 *36:5 *36:6 5
6 *36:3 *36:5 10.1786
7 *36:2 *101:D 0.394615
8 *36:1 *36:3 5
9 *36:0 *36:2 6
10 *36:0 *36:1 1.11607
*END

*D_NET *37 0.00166027

*CONN
*I *100:D I *C 44 42 *L 0.00112 *D DFF_X2
*I *106:ZN O *C 40 41 *L 0 *D AND2_X4

*CAP
1 *37:0 7.15328e-05
2 *37:1 0.000260718
3 *37:2 8.46109e-06
4 *37:3 0.000189185
5 *100:D 8.46109e-06
6 *37:5 0.000548418
7 *37:6 0.000548418
8 *37:7 4.07863e-06
9 *37:8 4.07863e-06
10 *37:9 8.46109e-06
11 *106:ZN 8.46109e-06

*RES
1 *37:9 *106:ZN 0.394615
2 *37:8 *37:9 6
3 *37:7 *37:8 0.116071
4 *37:6 *37:7 5
5 *37:5 *37:6 15.6071
6 *37:3 *37:5 5
7 *37:2 *100:D 0.394615
8 *37:1 *37:3 5.38393
9 *37:0 *37:2 6
10 *37:0 *37:1 2.03571
*END

*D_NET *38 0.000481243

*CONN
*I *73:Z O *C 44 43 *L 0 *D XOR2_X1
*I *99:D I *C 43 44 *L 0.00112 *D DFF_X2

*CAP
1 *38:0 1.34908e-05
2 *38:1 1.34908e-05
3 *38:2 6.26748e-06
4 *38:3 0.000190754
5 *73:Z 6.26748e-06
6 *38:5 0.000190754
7 *38:6 2.16481e-05
8 *38:7 2.16481e-05
9 *38:8 8.46109e-06
10 *99:D 8.46109e-06

*RES
1 *38:8 *99:D 0.394615
2 *38:7 *38:8 6
3 *38:6 *38:7 0.616071
4 *38:5 *38:6 5
5 *38:3 *38:5 5.42857
6 *38:2 *73:Z 0.292308
7 *38:1 *38:3 5
8 *38:0 *38:2 6
9 *38:0 *38:1 0.383929
*END

*D_NET *39 0.000813782

*CONN
*I *98:D I *C 44 46 *L 0.00112 *D DFF_X2
*I *69:Z O *C 42 45 *L 0 *D XOR2_X1

*CAP
1 *39:0 0.000144634
2 *39:1 0.000144634
3 *39:2 8.46109e-06
4 *39:3 0.000190754
5 *98:D 8.46109e-06
6 *39:5 0.000190754
7 *39:6 2.16481e-05
8 *39:7 4.54924e-05
9 *39:8 2.38443e-05
10 *39:9 1.75489e-05
11 *69:Z 1.75489e-05

*RES
1 *39:9 *69:Z 0.818462
2 *39:8 *39:9 6
3 *39:7 *39:8 0.678571
4 *39:6 *39:7 0.616071
5 *39:5 *39:6 5
6 *39:3 *39:5 5.42857
7 *39:2 *98:D 0.394615
8 *39:1 *39:3 5
9 *39:0 *39:2 6
10 *39:0 *39:1 4.11607
*END

*D_NET *40 0.00069456

*CONN
*I *65:Z O *C 45 48 *L 0 *D XOR2_X1
*I *97:D I *C 43 48 *L 0.00112 *D DFF_X2

*CAP
1 *40:0 2.38443e-05
2 *40:1 3.73351e-05
3 *40:2 1.75489e-05
4 *40:3 1.34908e-05
5 *65:Z 1.75489e-05
6 *40:5 0.000262287
7 *40:6 0.000262287
8 *40:7 2.16481e-05
9 *40:8 2.16481e-05
10 *40:9 8.46109e-06
11 *97:D 8.46109e-06

*RES
1 *40:9 *97:D 0.394615
2 *40:8 *40:9 6
3 *40:7 *40:8 0.616071
4 *40:6 *40:7 5
5 *40:5 *40:6 7.46429
6 *40:3 *40:5 5
7 *40:2 *65:Z 0.818462
8 *40:1 *40:3 0.383929
9 *40:0 *40:2 6
10 *40:0 *40:1 0.678571
*END

*D_NET *41 0.00102522

*CONN
*I *94:B2 I *C 45 49 *L 0.000668 *D AOI22_X1
*I *93:A I *C 45 48 *L 0.00124 *D XOR2_X1
*I *92:ZN O *C 46 47 *L 0 *D INV_X2

*CAP
1 *41:0 2.38443e-05
2 *41:1 0.000226834
3 *41:2 1.97425e-05
4 *41:3 0.000381508
5 *94:B2 1.97425e-05
6 *41:5 4.76885e-05
7 *41:6 0.000202363
8 *41:7 1.19082e-05
9 *41:8 7.15328e-05
10 *93:A 1.19082e-05
11 *41:10 4.07386e-06
12 *92:ZN 4.07386e-06

*RES
1 *41:10 *92:ZN 0.19
2 *41:8 *41:10 6
3 *41:7 *93:A 0.555385
4 *41:6 *41:8 2.03571
5 *41:5 *41:7 6
6 *41:3 *41:6 3.72321
7 *41:3 *41:5 1.35714
8 *41:2 *94:B2 0.920769
9 *41:1 *41:3 5.77679
10 *41:0 *41:2 6
11 *41:0 *41:1 0.678571
*END

*D_NET *42 0.000905371

*CONN
*I *89:A I *C 45 45 *L 0.00124 *D XOR2_X1
*I *90:B2 I *C 44 45 *L 0.000668 *D AOI22_X1
*I *88:ZN O *C 46 44 *L 0 *D INV_X2

*CAP
1 *42:0 6.61992e-05
2 *42:1 4.2355e-05
3 *42:2 8.56511e-05
4 *42:3 1.19082e-05
5 *42:4 6.18069e-05
6 *42:5 4.07386e-06
7 *89:A 1.19082e-05
8 *42:7 0.000238443
9 *90:B2 4.07386e-06
10 *42:9 0.000238443
11 *42:10 2.66679e-05
12 *42:11 5.05122e-05
13 *42:12 2.38443e-05
14 *42:13 1.97425e-05
15 *88:ZN 1.97425e-05

*RES
1 *42:13 *88:ZN 0.920769
2 *42:12 *42:13 6
3 *42:11 *42:12 0.678571
4 *42:10 *42:11 0.758929
5 *42:9 *42:10 5
6 *42:7 *42:9 6.78571
7 *42:5 *90:B2 0.19
8 *42:4 *42:7 5
9 *42:3 *89:A 0.555385
10 *42:2 *42:5 6
11 *42:2 *42:4 1.75893
12 *42:1 *42:3 6
13 *42:0 *42:2 0.678571
14 *42:0 *42:1 1.20536
*END

*D_NET *43 0.00145818

*CONN
*I *85:A I *C 49 43 *L 0.00124 *D XOR2_X1
*I *86:B2 I *C 47 44 *L 0.000668 *D AOI22_X1
*I *84:ZN O *C 46 42 *L 0 *D INV_X2

*CAP
1 *43:0 2.38443e-05
2 *43:1 2.50992e-05
3 *43:2 1.19082e-05
4 *43:3 1.25496e-06
5 *85:A 1.19082e-05
6 *43:5 0.000143066
7 *43:6 0.000309975
8 *43:7 0.00016691
9 *43:8 4.36099e-05
10 *43:9 0.000219305
11 *43:10 9.12985e-05
12 *43:11 0.000266993
13 *43:12 4.76885e-05
14 *43:13 4.76885e-05
15 *43:14 4.07386e-06
16 *43:15 1.97425e-05
17 *86:B2 4.07386e-06
18 *84:ZN 1.97425e-05

*RES
1 *43:15 *84:ZN 0.920769
2 *43:14 *86:B2 0.19
3 *43:13 *43:15 6
4 *43:12 *43:14 6
5 *43:11 *43:13 1.35714
6 *43:10 *43:12 1.35714
7 *43:9 *43:11 6.24107
8 *43:8 *43:10 1.24107
9 *43:7 *43:9 5
10 *43:6 *43:8 5
11 *43:6 *43:7 4.75
12 *43:5 *43:6 4.07143
13 *43:3 *43:5 5
14 *43:2 *85:A 0.555385
15 *43:1 *43:3 0.0357143
16 *43:0 *43:2 6
17 *43:0 *43:1 0.678571
*END

*D_NET *44 0.00126977

*CONN
*I *76:ZN O *C 43 41 *L 0 *D INV_X2
*I *78:B2 I *C 41 41 *L 0.000668 *D AOI22_X1
*I *77:A I *C 41 42 *L 0.00124 *D XOR2_X1

*CAP
1 *44:0 2.38443e-05
2 *44:1 3.23153e-05
3 *44:2 1.97425e-05
4 *44:3 8.47099e-06
5 *76:ZN 1.97425e-05
6 *44:5 0.00014683
7 *44:6 0.000262287
8 *44:7 0.000115456
9 *44:8 7.14673e-05
10 *44:9 9.09847e-06
11 *44:10 7.14673e-05
12 *44:11 3.29427e-05
13 *44:12 4.39237e-05
14 *44:13 2.38443e-05
15 *44:14 4.39237e-05
16 *44:15 1.97425e-05
17 *44:16 6.90229e-05
18 *78:B2 1.97425e-05
19 *44:18 0.000140556
20 *44:19 7.15328e-05
21 *44:20 1.19082e-05
22 *77:A 1.19082e-05

*RES
1 *44:20 *77:A 0.555385
2 *44:19 *44:20 6
3 *44:18 *44:19 2.03571
4 *44:16 *44:18 1.96429
5 *44:15 *78:B2 0.920769
6 *44:14 *44:16 5
7 *44:13 *44:15 6
8 *44:12 *44:14 1.25
9 *44:11 *44:13 0.678571
10 *44:10 *44:12 5
11 *44:9 *44:11 0.258929
12 *44:8 *44:10 0.84
13 *44:7 *44:9 5
14 *44:6 *44:8 5
15 *44:6 *44:7 3.28571
16 *44:5 *44:6 4.17857
17 *44:3 *44:5 5
18 *44:2 *76:ZN 0.920769
19 *44:1 *44:3 0.241071
20 *44:0 *44:2 6
21 *44:0 *44:1 0.678571
*END

*D_NET *45 0.00105781

*CONN