*SPEF "IEEE 1481-1998"
*DESIGN "counter"
*DATE "Tue May 23 22:25:25 2017"
*VENDOR "Silicon Perspective, A Cadence Company"
*PROGRAM "First Encounter"
*VERSION "08.10-p004_1"
*DESIGN_FLOW "PIN_CAP NONE" "NAME_SCOPE LOCAL"
*DIVIDER /
*DELIMITER :
*BUS_DELIMITER []
*T_UNIT 1 NS
*C_UNIT 1 PF
*R_UNIT 1 OHM
*L_UNIT 1 HENRY

*NAME_MAP

*1 clock__L2_N0
*2 clock__L1_N0
*3 in[3]
*4 in[2]
*5 in[1]
*6 in[0]
*7 clock
*8 latch
*9 dec
*10 zero
*11 sub_42_S2_A_0_
*12 sub_42_S2_A_1_
*13 sub_42_S2_A_2_
*14 sub_42_S2_A_3_
*15 n34
*16 n35
*17 n36
*18 n37
*19 n38
*20 n39
*21 n40
*22 n41
*23 n42
*24 n43
*25 n44
*26 n45
*27 n46
*28 n47
*29 n48
*30 n49
*31 n50
*32 n51
*33 n52
*34 n53
*35 n54
*36 clock__L2_I0
*37 clock__L1_I0
*38 value_reg_0_
*39 value_reg_1_
*40 value_reg_2_
*41 value_reg_3_
*42 U7
*43 U9
*44 U13
*45 U14
*46 U15
*47 U16
*48 U17
*49 U18
*50 U19
*51 U20
*52 U21
*53 U22
*54 U23
*55 U24
*56 U25
*57 U26
*58 U27
*59 U28
*60 U29
*61 U30


*PORTS

*7 I *C 90 46
*3 I *C 90 47
*4 I *C 0 45
*5 I *C 41 0
*6 I *C 46 0
*8 I *C 45 0
*9 I *C 44 0
*10 O *C 46 0


*D_NET *1 0.00468839

*CONN
*I *41:CK I *C 50 48 *L 0.001 *D DFF_X1
*I *36:ZN O *C 45 45 *L 0 *D INV_X4
*I *38:CK I *C 50 45 *L 0.001 *D DFF_X1
*I *40:CK I *C 40 48 *L 0.001 *D DFF_X1
*I *39:CK I *C 40 44 *L 0.001 *D DFF_X1

*CAP
1 *1:0 2.38443e-05
2 *1:1 0.000103221
3 *1:2 1.37884e-05
4 *1:3 7.93763e-05
5 *41:CK 1.37884e-05
6 *1:5 5.64733e-05
7 *1:6 5.64733e-05
8 *1:7 0.000250136
9 *1:8 0.000250136
10 *1:9 0.000596107
11 *1:10 0.00105417
12 *1:11 3.2629e-05
13 *1:12 0.00049069
14 *1:13 8.47099e-06
15 *1:14 2.60405e-05
16 *1:15 0.000428804
17 *1:16 3.23153e-05
18 *1:17 4.98847e-05
19 *1:18 0.000268003
20 *1:19 0.000160802
21 *1:20 2.38443e-05
22 *1:21 2.38443e-05
23 *1:22 8.15725e-05
24 *1:23 8.15725e-05
25 *1:24 1.97425e-05
26 *1:25 1.37884e-05
27 *1:26 8.15725e-05
28 *1:27 8.15725e-05
29 *36:ZN 1.97425e-05
30 *38:CK 1.37884e-05
31 *1:30 6.18069e-05
32 *1:31 4.42374e-05
33 *1:32 6.18069e-05
34 *1:33 4.42374e-05
35 *1:34 1.0028e-05
36 *1:35 1.0028e-05
37 *40:CK 1.0028e-05
38 *39:CK 1.0028e-05

*RES
1 *1:35 *39:CK 0.467692
2 *1:34 *40:CK 0.467692
3 *1:33 *1:35 6
4 *1:32 *1:34 6
5 *1:31 *1:33 1.25893
6 *1:30 *1:32 1.75893
7 *1:27 *1:31 5
8 *1:26 *1:30 5
9 *1:25 *38:CK 0.643077
10 *1:24 *36:ZN 0.920769
11 *1:23 *1:27 2.32143
12 *1:22 *1:26 2.32143
13 *1:21 *1:25 6
14 *1:20 *1:24 6
15 *1:19 *1:23 5
16 *1:18 *1:22 5
17 *1:17 *1:21 0.678571
18 *1:16 *1:20 0.678571
19 *1:15 *1:19 1.89
20 *1:15 *1:18 3.15
21 *1:14 *1:17 0.741071
22 *1:13 *1:16 0.241071
23 *1:12 *1:15 5
24 *1:11 *1:14 5
25 *1:10 *1:13 5
26 *1:10 *1:12 13.9643
27 *1:9 *1:11 0.928571
28 *1:9 *1:10 16.0357
29 *1:8 *1:9 5
30 *1:7 *1:8 2.94
31 *1:6 *1:7 5
32 *1:5 *1:6 1.60714
33 *1:3 *1:5 5
34 *1:2 *41:CK 0.643077
35 *1:1 *1:3 2.25893
36 *1:0 *1:2 6
37 *1:0 *1:1 0.678571
*END

*D_NET *2 0.00173487

*CONN
*I *37:ZN O *C 50 46 *L 0 *D INV_X8
*I *36:A I *C 45 45 *L 0.00187 *D INV_X4

*CAP
1 *2:0 2.38443e-05
2 *2:1 8.06313e-05
3 *2:2 1.53553e-05
4 *2:3 5.6787e-05
5 *37:ZN 1.53553e-05
6 *2:5 0.000594852
7 *2:6 0.000594852
8 *2:7 1.78668e-05
9 *2:8 1.78668e-05
10 *2:9 2.50992e-05
11 *2:10 2.50992e-05
12 *2:11 0.000113888
13 *2:12 0.000113888
14 *2:13 1.97425e-05
15 *36:A 1.97425e-05

*RES
1 *2:13 *36:A 0.920769
2 *2:12 *2:13 6
3 *2:11 *2:12 3.24107
4 *2:10 *2:11 5
5 *2:9 *2:10 0.714286
6 *2:8 *2:9 5
7 *2:7 *2:8 0.21
8 *2:6 *2:7 5
9 *2:5 *2:6 16.9286
10 *2:3 *2:5 5
11 *2:2 *37:ZN 0.716154
12 *2:1 *2:3 1.61607
13 *2:0 *2:2 6
14 *2:0 *2:1 0.678571
*END

*D_NET *3 0.0109608

*CONN
*I *43:A1 I *C 47 47 *L 0.00113 *D NAND2_X2
*P *3 I *C 90 47 *L 0

*CAP
1 *3:0 2.38443e-05
2 *3:1 3.23153e-05
3 *3:2 1.97425e-05
4 *3:3 8.47099e-06
5 *43:A1 1.97425e-05
6 *3:5 0.00542834
7 *3 0.00542834

*RES
1 *3:5 *3 154.482
2 *3:3 *3:5 5
3 *3:2 *43:A1 0.920769
4 *3:1 *3:3 0.241071
5 *3:0 *3:2 6
6 *3:0 *3:1 0.678571
*END

*D_NET *4 0.0104287

*CONN
*I *61:B1 I *C 41 45 *L 0.00128 *D AOI22_X2
*P *4 I *C 0 45 *L 0

*CAP
1 *4:0 2.38443e-05
2 *4:1 3.23153e-05
3 *4:2 1.97425e-05
4 *4:3 8.47099e-06
5 *61:B1 1.97425e-05
6 *4:5 0.00516228
7 *4 0.00516228

*RES
1 *4:5 *4 146.911
2 *4:3 *4:5 5
3 *4:2 *61:B1 0.920769
4 *4:1 *4:3 0.241071
5 *4:0 *4:2 6
6 *4:0 *4:1 0.678571
*END

*D_NET *5 0.0103785

*CONN
*P *5 I *C 41 0 *L 0
*I *59:A1 I *C 41 41 *L 0.0017 *D AOI22_X2

*CAP
1 *5:0 0.00517829
2 *5 0.00517829
3 *5:2 1.09681e-05
4 *59:A1 1.09681e-05

*RES
1 *5:2 *59:A1 0.511538
2 *5:0 *5:2 6
3 *5:0 *5 147.366
*END

*D_NET *6 0.0106295

*CONN
*P *6 I *C 46 0 *L 0
*I *44:B2 I *C 45 42 *L 0.00147 *D AOI221_X2

*CAP
1 *6:0 2.38443e-05
2 *6:1 0.005295
3 *6:2 1.97425e-05
4 *6 0.00527115
5 *44:B2 1.97425e-05

*RES
1 *6:2 *44:B2 0.920769
2 *6:1 *6 150.009
3 *6:0 *6:2 6
4 *6:0 *6:1 0.678571
*END

*D_NET *7 0.0104337

*CONN
*I *37:A I *C 49 47 *L 0.00364 *D INV_X8
*P *7 I *C 90 46 *L 0

*CAP
1 *7:0 2.38443e-05
2 *7:1 0.000102593
3 *7:2 1.97425e-05
4 *7:3 7.87488e-05
5 *37:A 1.97425e-05
6 *7:5 0.00509452
7 *7 0.00509452

*RES
1 *7:5 *7 144.982
2 *7:3 *7:5 5
3 *7:2 *37:A 0.920769
4 *7:1 *7:3 2.24107
5 *7:0 *7:2 6
6 *7:0 *7:1 0.678571
*END

*D_NET *8 0.0153686

*CONN
*I *46:A1 I *C 48 41 *L 0.00122 *D NOR2_X2
*P *8 I *C 45 0 *L 0
*I *59:A2 I *C 41 41 *L 0.00134 *D AOI22_X2
*I *61:B2 I *C 41 45 *L 0.00126 *D AOI22_X2
*I *44:B1 I *C 46 42 *L 0.00148 *D AOI221_X2
*I *47:A2 I *C 46 44 *L 0.00139 *D NOR3_X2
*I *43:A2 I *C 47 46 *L 0.00107 *D NAND2_X2

*CAP
1 *8:0 6.11794e-05
2 *8:1 6.11794e-05
3 *8:2 4.07386e-06
4 *8:3 0.000239698
5 *46:A1 4.07386e-06
6 *8:5 0.000405353
7 *8:6 0.000690229
8 *8:7 0.000196535
9 *8:8 0.000524574
10 *8:9 0.00508636
11 *8:10 0.00039307
12 *8:11 5.39633e-05
13 *8 0.00508636
14 *8:13 0.000518138
15 *8:14 4.64336e-05
16 *8:15 0.000536182
17 *8:16 0.000321603
18 *8:17 1.25496e-06
19 *8:18 4.64336e-05
20 *8:19 0.000506063
21 *8:20 1.41018e-05
22 *8:21 7.27878e-05
23 *8:22 1.25496e-06
24 *8:23 8.47099e-06
25 *8:24 2.38443e-05
26 *59:A2 1.41018e-05
27 *8:26 7.27878e-05
28 *8:27 8.47099e-06
29 *8:28 3.23153e-05
30 *8:29 1.97425e-05
31 *8:30 2.60405e-05
32 *8:31 3.23153e-05
33 *8:32 2.38443e-05
34 *61:B2 1.97425e-05
35 *8:34 4.98847e-05
36 *8:35 2.38443e-05
37 *8:36 1.97425e-05
38 *8:37 2.38443e-05
39 *8:38 1.97425e-05
40 *44:B1 1.97425e-05
41 *8:40 1.97425e-05
42 *47:A2 1.97425e-05
43 *43:A2 1.97425e-05

*RES
1 *8:40 *43:A2 0.920769
2 *8:38 *47:A2 0.920769
3 *8:37 *8:40 6
4 *8:36 *44:B1 0.920769
5 *8:35 *8:38 6
6 *8:34 *8:37 0.678571
7 *8:32 *8:36 6
8 *8:31 *8:35 0.678571
9 *8:30 *8:34 0.741071
10 *8:29 *61:B2 0.920769
11 *8:28 *8:32 0.678571
12 *8:27 *8:31 0.241071
13 *8:26 *8:30 5
14 *8:24 *8:29 6
15 *8:23 *8:28 0.241071
16 *8:22 *8:27 5
17 *8:21 *8:26 2.07143
18 *8:20 *59:A2 0.657692
19 *8:19 *8:24 0.678571
20 *8:18 *8:23 5
21 *8:17 *8:22 0.0357143
22 *8:16 *8:21 5
23 *8:15 *8:20 6
24 *8:15 *8:19 13.7232
25 *8:14 *8:18 1.32143
26 *8:13 *8:17 5
27 *8:13 *8:16 3.78
28 *8:11 *8:15 1.53571
29 *8:10 *8:14 5
30 *8:10 *8:13 2.31
31 *8:9 *8 144.75
32 *8:8 *8:11 5
33 *8:7 *8:10 2.31
34 *8:6 *8:9 5
35 *8:6 *8:8 14.9286
36 *8:5 *8:7 5
37 *8:5 *8:6 4.71429
38 *8:3 *8:5 6.82143
39 *8:2 *46:A1 0.19
40 *8:1 *8:3 5
41 *8:0 *8:2 6
42 *8:0 *8:1 1.74107
*END

*D_NET *9 0.011085

*CONN
*P *9 I *C 44 0 *L 0
*I *53:A I *C 44 44 *L 0.00187 *D INV_X4

*CAP
1 *9:0 2.38443e-05
2 *9:1 0.00552277
3 *9:2 1.97425e-05
4 *9 0.00549893
5 *53:A 1.97425e-05

*RES
1 *9:2 *53:A 0.920769
2 *9:1 *9 156.491
3 *9:0 *9:2 6
4 *9:0 *9:1 0.678571
*END

*D_NET *10 0.0118082

*CONN
*I *47:A1 I *C 46 43 *L 0.00159 *D NOR3_X2
*I *48:ZN O *C 46 44 *L 0 *D NOR4_X2
*P *10 O *C 46 0 *L 0

*CAP
1 *10:0 2.38443e-05
2 *10:1 3.23153e-05
3 *10:2 1.97425e-05
4 *10:3 8.47099e-06
5 *47:A1 1.97425e-05
6 *10:5 7.15328e-05
7 *10:6 0.000130516
8 *10:7 5.89832e-05
9 *10:8 0.000136477
10 *10:9 0.000500271
11 *10:10 0.000160321
12 *10:11 0.000500271
13 *10:12 2.38443e-05
14 *10:13 0.000106672
15 *10:14 8.46109e-06
16 *10:15 0.000106672
17 *48:ZN 8.46109e-06
18 *10:17 0.0049458
19 *10 0.0049458

*RES
1 *10:17 *10 140.75
2 *10:15 *10:17 5
3 *10:14 *48:ZN 0.394615
4 *10:13 *10:15 3.03571
5 *10:12 *10:14 6
6 *10:11 *10:13 5
7 *10:10 *10:12 0.678571
8 *10:9 *10:11 5.88
9 *10:8 *10:10 3.88393
10 *10:7 *10:9 5
11 *10:6 *10:8 5
12 *10:6 *10:7 1.67857
13 *10:5 *10:6 2.03571
14 *10:3 *10:5 5
15 *10:2 *47:A1 0.920769
16 *10:1 *10:3 0.241071
17 *10:0 *10:2 6
18 *10:0 *10:1 0.678571
*END

*D_NET *11 0.00181705

*CONN
*I *38:Q O *C 47 45 *L 0 *D DFF_X1
*I *44:C1 I *C 46 42 *L 0.00168 *D AOI221_X2
*I *54:B2 I *C 47 41 *L 0.00135 *D AOI21_X2
*I *48:A1 I *C 46 45 *L 0.00186 *D NOR4_X2
*I *45:A2 I *C 46 41 *L 0.00113 *D NOR2_X2

*CAP
1 *11:0 0.000358292
2 *11:1 4.07863e-06
3 *11:2 0.000535555
4 *11:3 8.46109e-06
5 *11:4 0.000143066
6 *11:5 4.76885e-05
7 *11:6 0.000142752
8 *38:Q 8.46109e-06
9 *11:8 0.000143066
10 *11:9 1.97425e-05
11 *11:10 3.29427e-05
12 *11:11 0.000119221
13 *11:12 9.09847e-06
14 *44:C1 1.97425e-05
15 *11:14 2.38443e-05
16 *11:15 0.000119221
17 *11:16 9.09847e-06
18 *11:17 1.97425e-05
19 *11:18 8.47099e-06
20 *11:19 4.07386e-06
21 *54:B2 1.97425e-05
22 *11:21 8.47099e-06
23 *48:A1 4.07386e-06
24 *11:23 4.07386e-06
25 *45:A2 4.07386e-06

*RES
1 *11:23 *45:A2 0.19
2 *11:21 *11:23 6
3 *11:19 *48:A1 0.19
4 *11:18 *11:21 0.241071
5 *11:17 *54:B2 0.920769
6 *11:16 *11:19 6
7 *11:15 *11:18 5
8 *11:14 *11:17 6
9 *11:12 *11:16 0.258929
10 *11:11 *11:15 3.39286
11 *11:10 *11:14 0.678571
12 *11:9 *44:C1 0.920769
13 *11:8 *11:12 5
14 *11:6 *11:11 5
15 *11:6 *11:10 0.258929
16 *11:5 *11:9 6
17 *11:4 *11:8 4.07143
18 *11:3 *38:Q 0.394615
19 *11:2 *11:6 3.80357
20 *11:2 *11:5 1.35714
21 *11:1 *11:4 5
22 *11:0 *11:3 6
23 *11:0 *11:2 10.0804
24 *11:0 *11:1 0.116071
*END

*D_NET *12 0.00110616

*CONN
*I *48:A2 I *C 46 45 *L 0.00166 *D NOR4_X2
*I *42:A2 I *C 44 45 *L 0.00113 *D NOR2_X2
*I *39:Q O *C 43 44 *L 0 *D DFF_X1

*CAP
1 *12:0 8.47099e-06
2 *12:1 8.47099e-06
3 *12:2 4.07386e-06
4 *12:3 0.000262287
5 *48:A2 4.07386e-06
6 *12:5 0.000262287
7 *12:6 4.36099e-05
8 *12:7 0.00019546
9 *12:8 2.38443e-05
10 *12:9 0.000175695
11 *12:10 1.97425e-05
12 *12:11 4.76885e-05
13 *42:A2 1.97425e-05
14 *12:13 1.53553e-05
15 *39:Q 1.53553e-05

*RES
1 *12:13 *39:Q 0.716154
2 *12:11 *12:13 6
3 *12:10 *42:A2 0.920769
4 *12:9 *12:11 1.35714
5 *12:8 *12:10 6
6 *12:7 *12:9 3.64286
7 *12:7 *12:8 0.678571
8 *12:6 *12:7 1.24107
9 *12:5 *12:6 5
10 *12:3 *12:5 7.46429
11 *12:2 *48:A2 0.19
12 *12:1 *12:3 5
13 *12:0 *12:2 6
14 *12:0 *12:1 0.241071
*END

*D_NET *13 0.00197206

*CONN
*I *48:A3 I *C 46 45 *L 0.00161 *D NOR4_X2
*I *60:B2 I *C 44 46 *L 0.00135 *D AOI21_X2
*I *42:A1 I *C 44 45 *L 0.00122 *D NOR2_X2
*I *40:Q O *C 43 48 *L 0 *D DFF_X1
*I *57:B1 I *C 45 47 *L 0.00139 *D AOI21_X2

*CAP
1 *13:0 8.47099e-06
2 *13:1 8.47099e-06
3 *13:2 4.07386e-06
4 *13:3 0.000238443
5 *48:A3 4.07386e-06
6 *13:5 0.000238443
7 *13:6 0.000227776
8 *13:7 0.000375233
9 *13:8 3.23153e-05
10 *13:9 0.000145576
11 *13:10 2.38443e-05
12 *13:11 2.38443e-05
13 *13:12 0.000108868
14 *13:13 0.00016691
15 *13:14 4.07386e-06
16 *13:15 1.97425e-05
17 *13:16 9.53771e-05
18 *13:17 0.00016691
19 *60:B2 4.07386e-06
20 *42:A1 1.97425e-05
21 *13:20 1.53553e-05
22 *13:21 8.47099e-06
23 *40:Q 1.53553e-05
24 *13:23 8.47099e-06
25 *13:24 4.07386e-06
26 *57:B1 4.07386e-06

*RES
1 *13:24 *57:B1 0.19
2 *13:23 *13:24 6
3 *13:21 *13:23 0.241071
4 *13:20 *40:Q 0.716154
5 *13:17 *13:21 5
6 *13:16 *13:20 6
7 *13:15 *42:A1 0.920769
8 *13:14 *60:B2 0.19
9 *13:13 *13:17 4.75
10 *13:12 *13:16 2.71429
11 *13:11 *13:15 6
12 *13:10 *13:14 6
13 *13:9 *13:13 5
14 *13:9 *13:12 0.383929
15 *13:8 *13:11 0.678571
16 *13:7 *13:10 0.678571
17 *13:7 *13:9 3.75893
18 *13:6 *13:8 0.241071
19 *13:6 *13:7 6.24107
20 *13:5 *13:6 5
21 *13:3 *13:5 6.78571
22 *13:2 *48:A3 0.19
23 *13:1 *13:3 5
24 *13:0 *13:2 6
25 *13:0 *13:1 0.241071
*END

*D_NET *14 0.0010579

*CONN
*I *41:Q O *C 47 48 *L 0 *D DFF_X1
*I *48:A4 I *C 46 45 *L 0.00157 *D NOR4_X2

*CAP
1 *14:0 2.38443e-05
2 *14:1 0.000388724
3 *14:2 8.46109e-06
4 *14:3 0.00036488
5 *41:Q 8.46109e-06
6 *14:5 0.000119221
7 *14:6 0.000119221
8 *14:7 8.47099e-06
9 *14:8 8.47099e-06
10 *14:9 4.07386e-06
11 *48:A4 4.07386e-06

*RES
1 *14:9 *48:A4 0.19
2 *14:8 *14:9 6
3 *14:7 *14:8 0.241071
4 *14:6 *14:7 5
5 *14:5 *14:6 3.39286
6 *14:3 *14:5 5
7 *14:2 *41:Q 0.394615
8 *14:1 *14:3 10.3839
9 *14:0 *14:2 6
10 *14:0 *14:1 0.678571
*END

*D_NET *15 0.000464889

*CONN
*I *41:QN O *C 47 47 *L 0 *D DFF_X1
*I *56:B2 I *C 46 48 *L 0.00131 *D OAI21_X2

*CAP
1 *15:0 2.38443e-05
2 *15:1 4.29824e-05
3 *15:2 1.19082e-05
4 *15:3 1.91382e-05
5 *41:QN 1.19082e-05
6 *15:5 9.53771e-05
7 *15:6 9.53771e-05
8 *15:7 3.85901e-05
9 *15:8 6.24343e-05
10 *15:9 2.38443e-05
11 *15:10 1.97425e-05
12 *56:B2 1.97425e-05

*RES
1 *15:10 *56:B2 0.920769
2 *15:9 *15:10 6
3 *15:8 *15:9 0.678571
4 *15:7 *15:8 1.09821
5 *15:6 *15:7 5
6 *15:5 *15:6 2.71429
7 *15:3 *15:5 5
8 *15:2 *41:QN 0.555385
9 *15:1 *15:3 0.544643
10 *15:0 *15:2 6
11 *15:0 *15:1 0.678571
*END

*D_NET *16 0.000513213

*CONN
*I *38:D I *C 49 45 *L 0.00112 *D DFF_X1
*I *49:ZN O *C 49 43 *L 0 *D INV_X4

*CAP
1 *16:0 0.000180714
2 *16:1 0.000228403
3 *16:2 8.46109e-06
4 *16:3 4.76885e-05
5 *38:D 8.46109e-06
6 *16:5 1.97425e-05
7 *49:ZN 1.97425e-05

*RES
1 *16:5 *49:ZN 0.920769
2 *16:3 *16:5 6
3 *16:2 *38:D 0.394615
4 *16:1 *16:3 1.35714
5 *16:0 *16:2 6
6 *16:0 *16:1 5.14286
*END

*D_NET *17 0.00103777

*CONN
*I *50:ZN O *C 44 48 *L 0 *D INV_X4
*I *40:D I *C 41 48 *L 0.00112 *D DFF_X1

*CAP
1 *17:0 2.38443e-05
2 *17:1 5.05122e-05
3 *17:2 1.97425e-05
4 *17:3 2.66679e-05
5 *50:ZN 1.97425e-05
6 *17:5 0.000405353
7 *17:6 0.000405353
8 *17:7 4.07863e-06
9 *17:8 2.79229e-05
10 *17:9 2.38443e-05
11 *17:10 1.53553e-05
12 *40:D 1.53553e-05

*RES
1 *17:10 *40:D 0.716154
2 *17:9 *17:10 6
3 *17:8 *17:9 0.678571
4 *17:7 *17:8 0.116071
5 *17:6 *17:7 5
6 *17:5 *17:6 11.5357
7 *17:3 *17:5 5
8 *17:2 *50:ZN 0.920769
9 *17:1 *17:3 0.758929
10 *17:0 *17:2 6
11 *17:0 *17:1 0.678571
*END

*D_NET *18 0.000554674

*CONN
*I *60:A I *C 43 46 *L 0.00115 *D AOI21_X2
*I *51:ZN O *C 41 46 *L 0 *D INV_X4

*CAP
1 *18:0 4.07863e-06
2 *18:1 4.07863e-06
3 *18:2 4.07386e-06
4 *18:3 0.000238443
5 *60:A 4.07386e-06
6 *18:5 0.000238443
7 *18:6 2.66679e-05
8 *18:7 2.66679e-05
9 *18:8 4.07386e-06
10 *51:ZN 4.07386e-06

*RES
1 *18:8 *51:ZN 0.19
2 *18:7 *18:8 6
3 *18:6 *18:7 0.758929
4 *18:5 *18:6 5
5 *18:3 *18:5 6.78571
6 *18:2 *60:A 0.19
7 *18:1 *18:3 5
8 *18:0 *18:2 6
9 *18:0 *18:1 0.116071
*END

*D_NET *19 0.00160753

*CONN
*I *52:ZN O *C 49 41 *L 0 *D INV_X4
*I *45:A1 I *C 45 41 *L 0.00122 *D NOR2_X2
*I *55:B1 I *C 44 41 *L 0.00139 *D OAI21_X2

*CAP
1 *19:0 2.38443e-05
2 *19:1 3.29427e-05
3 *19:2 1.97425e-05
4 *19:3 9.09847e-06
5 *52:ZN 1.97425e-05
6 *19:5 0.00050073
7 *19:6 0.000667639
8 *19:7 0.00016691
9 *19:8 4.36099e-05
10 *19:9 2.63542e-05
11 *19:10 4.36099e-05
12 *19:11 2.63542e-05
13 *19:12 4.07386e-06
14 *19:13 9.40121e-06
15 *45:A1 4.07386e-06
16 *55:B1 9.40121e-06

*RES
1 *19:13 *55:B1 0.438462
2 *19:12 *45:A1 0.19
3 *19:11 *19:13 6
4 *19:10 *19:12 6
5 *19:9 *19:11 0.75
6 *19:8 *19:10 1.24107
7 *19:7 *19:9 5
8 *19:6 *19:8 5
9 *19:6 *19:7 4.75
10 *19:5 *19:6 14.25
11 *19:3 *19:5 5
12 *19:2 *52:ZN 0.920769
13 *19:1 *19:3 0.258929
14 *19:0 *19:2 6
15 *19:0 *19:1 0.678571
*END

*D_NET *20 0.00159312

*CONN
*I *39:QN O *C 43 44 *L 0 *D DFF_X1
*I *55:B2 I *C 44 41 *L 0.00131 *D OAI21_X2
*I *58:B2 I *C 42 41 *L 0.00131 *D OAI21_X2
*I *59:B2 I *C 41 41 *L 0.00126 *D AOI22_X2

*CAP
1 *20:0 2.38443e-05
2 *20:1 0.000429511
3 *20:2 1.19082e-05
4 *20:3 0.000409117
5 *39:QN 1.19082e-05
6 *20:5 7.4984e-05
7 *20:6 0.000119221
8 *20:7 7.15328e-05
9 *20:8 0.000238443
10 *20:9 4.07386e-06
11 *20:10 0.000119221
12 *20:11 3.45114e-06
13 *55:B2 4.07386e-06
14 *20:13 2.60405e-05
15 *20:14 3.45114e-06
16 *20:15 2.60405e-05
17 *20:16 4.07386e-06
18 *20:17 4.07386e-06
19 *58:B2 4.07386e-06
20 *59:B2 4.07386e-06

*RES
1 *20:17 *59:B2 0.19
2 *20:16 *58:B2 0.19
3 *20:15 *20:17 6
4 *20:14 *20:16 6
5 *20:13 *20:15 0.741071
6 *20:11 *20:14 0.0982143
7 *20:10 *20:13 5
8 *20:9 *55:B2 0.19
9 *20:8 *20:11 5
10 *20:8 *20:10 3.39286
11 *20:7 *20:9 6
12 *20:6 *20:8 3.39286
13 *20:5 *20:7 2.03571
14 *20:3 *20:6 5
15 *20:3 *20:5 0.0982143
16 *20:2 *39:QN 0.555385
17 *20:1 *20:3 11.5446
18 *20:0 *20:2 6
19 *20:0 *20:1 0.678571
*END

*D_NET *21 0.000661272

*CONN
*I *47:A3 I *C 46 44 *L 0.00136 *D NOR3_X2
*I *53:ZN O *C 44 43 *L 0 *D INV_X4

*CAP
1 *21:0 2.38443e-05
2 *21:1 3.23153e-05
3 *21:2 1.97425e-05
4 *21:3 8.47099e-06
5 *47:A3 1.97425e-05
6 *21:5 9.53771e-05
7 *21:6 9.53771e-05
8 *21:7 4.42374e-05
9 *21:8 0.000163459
10 *21:9 0.000119221
11 *21:10 1.97425e-05
12 *53:ZN 1.97425e-05

*RES
1 *21:10 *53:ZN 0.920769
2 *21:9 *21:10 6
3 *21:8 *21:9 3.39286
4 *21:7 *21:8 1.25893
5 *21:6 *21:7 5
6 *21:5 *21:6 2.71429
7 *21:3 *21:5 5
8 *21:2 *47:A3 0.920769
9 *21:1 *21:3 0.241071
10 *21:0 *21:2 6
11 *21:0 *21:1 0.678571
*END

*D_NET *22 0.00136905

*CONN
*I *54:ZN O *C 47 41 *L 0 *D AOI21_X2
*I *58:B1 I *C 43 41 *L 0.00139 *D OAI21_X2
*I *55:A I *C 44 41 *L 0.00109 *D OAI21_X2

*CAP
1 *22:0 2.38443e-05
2 *22:1 2.5413e-05
3 *22:2 2.22495e-05
4 *22:3 1.5687e-06
5 *54:ZN 2.22495e-05
6 *22:5 0.00033382
7 *22:6 0.000548418
8 *22:7 0.000214598
9 *22:8 3.10603e-05
10 *22:9 8.78473e-06
11 *22:10 5.49046e-05
12 *22:11 8.78473e-06
13 *22:12 2.38443e-05
14 *22:13 9.40121e-06
15 *22:14 1.53553e-05
16 *58:B1 9.40121e-06
17 *55:A 1.53553e-05

*RES
1 *22:14 *55:A 0.716154
2 *22:13 *58:B1 0.438462
3 *22:12 *22:14 6
4 *22:11 *22:13 6
5 *22:10 *22:12 0.678571
6 *22:9 *22:11 0.25
7 *22:8 *22:10 0.883929
8 *22:7 *22:9 5
9 *22:6 *22:8 5
10 *22:6 *22:7 6.10714
11 *22:5 *22:6 9.5
12 *22:3 *22:5 5
13 *22:2 *54:ZN 1.03769
14 *22:1 *22:3 0.0446429
15 *22:0 *22:2 6
16 *22:0 *22:1 0.678571
*END

*D_NET *23 0.000695205

*CONN
*I *58:A I *C 43 41 *L 0.00109 *D OAI21_X2
*I *59:ZN O *C 41 41 *L 0 *D AOI22_X2

*CAP
1 *23:0 2.38443e-05
2 *23:1 9.00435e-05
3 *23:2 1.53553e-05
4 *23:3 6.61992e-05
5 *58:A 1.53553e-05
6 *23:5 0.000214598
7 *23:6 0.000214598
8 *23:7 2.4158e-05
9 *23:8 2.4158e-05
10 *23:9 3.44711e-06
11 *59:ZN 3.44711e-06

*RES
1 *23:9 *59:ZN 0.160769
2 *23:8 *23:9 6
3 *23:7 *23:8 0.6875
4 *23:6 *23:7 5
5 *23:5 *23:6 6.10714
6 *23:3 *23:5 5
7 *23:2 *58:A 0.716154
8 *23:1 *23:3 1.88393
9 *23:0 *23:2 6
10 *23:0 *23:1 0.678571
*END

*D_NET *24 0.00257259

*CONN
*I *44:A I *C 46 42 *L 0.00142 *D AOI221_X2
*I *45:ZN O *C 46 41 *L 0 *D NOR2_X2
*I *61:A2 I *C 42 45 *L 0.00134 *D AOI22_X2
*I *59:B1 I *C 41 41 *L 0.00128 *D AOI22_X2

*CAP
1 *24:0 2.38443e-05
2 *24:1 9.00435e-05
3 *24:2 1.53553e-05
4 *24:3 9.47496e-05
5 *44:A 1.53553e-05
6 *24:5 7.62389e-05
7 *24:6 0.000572262
8 *24:7 4.76885e-05
9 *24:8 0.000572262
10 *24:9 6.26748e-06
11 *24:10 0.00046465
12 *45:ZN 6.26748e-06
13 *24:12 0.000444256
14 *24:13 6.80817e-05
15 *24:14 2.38443e-05
16 *24:15 2.38443e-05
17 *24:16 9.71459e-06
18 *24:17 4.07386e-06
19 *61:A2 9.71459e-06
20 *59:B1 4.07386e-06

*RES
1 *24:17 *59:B1 0.19
2 *24:16 *61:A2 0.453077
3 *24:15 *24:17 6
4 *24:14 *24:16 6
5 *24:13 *24:15 0.678571
6 *24:12 *24:14 0.678571
7 *24:10 *24:13 1.25893
8 *24:10 *24:12 11.9643
9 *24:9 *45:ZN 0.292308
10 *24:8 *24:10 5
11 *24:7 *24:9 6
12 *24:6 *24:8 16.2857
13 *24:5 *24:7 1.35714
14 *24:3 *24:6 5
15 *24:3 *24:5 0.8125
16 *24:2 *44:A 0.716154
17 *24:1 *24:3 1.88393
18 *24:0 *24:2 6
19 *24:0 *24:1 0.678571
*END

*D_NET *25 0.000548368

*CONN
*I *50:A I *C 44 47 *L 0.00187 *D INV_X4
*I *60:ZN O *C 44 46 *L 0 *D AOI21_X2

*CAP
1 *25:0 2.38443e-05
2 *25:1 0.00013836
3 *25:2 1.97425e-05
4 *25:3 0.000114515
5 *50:A 1.97425e-05
6 *25:5 9.53771e-05
7 *25:6 9.53771e-05
8 *25:7 1.91382e-05
9 *25:8 1.91382e-05
10 *25:9 1.56687e-06
11 *60:ZN 1.56687e-06

*RES
1 *25:9 *60:ZN 0.0730769
2 *25:8 *25:9 6
3 *25:7 *25:8 0.544643
4 *25:6 *25:7 5
5 *25:5 *25:6 2.71429
6 *25:3 *25:5 5
7 *25:2 *50:A 0.920769
8 *25:1 *25:3 3.25893
9 *25:0 *25:2 6
10 *25:0 *25:1 0.678571
*END

*D_NET *26 0.00231789

*CONN
*I *57:A I *C 45 48 *L 0.00115 *D AOI21_X2
*I *60:B1 I *C 44 47 *L 0.00139 *D AOI21_X2
*I *55:ZN O *C 44 41 *L 0 *D OAI21_X2

*CAP
1 *26:0 8.37687e-05
2 *26:1 8.37687e-05
3 *26:2 4.07386e-06
4 *26:3 0.000190754
5 *57:A 4.07386e-06
6 *26:5 0.000190754
7 *26:6 4.42374e-05
8 *26:7 0.000803489
9 *26:8 0.00080694
10 *26:9 2.38443e-05
11 *26:10 7.15328e-05
12 *26:11 4.07386e-06
13 *26:12 1.2535e-06
14 *60:B1 4.07386e-06
15 *55:ZN 1.2535e-06

*RES
1 *26:12 *55:ZN 0.0584615
2 *26:11 *60:B1 0.19
3 *26:10 *26:12 6
4 *26:9 *26:11 6
5 *26:8 *26:10 2.03571
6 *26:7 *26:9 0.678571
7 *26:7 *26:8 20.9286
8 *26:6 *26:7 1.25893
9 *26:5 *26:6 5
10 *26:3 *26:5 5.42857
11 *26:2 *57:A 0.19
12 *26:1 *26:3 5
13 *26:0 *26:2 6
14 *26:0 *26:1 2.38393
*END

*D_NET *27 0.000844532

*CONN
*I *51:A I *C 41 47 *L 0.00187 *D INV_X4
*I *61:ZN O *C 41 44 *L 0 *D AOI22_X2

*CAP
1 *27:0 4.76885e-05
2 *27:1 0.00032629
3 *27:2 4.07386e-06
4 *27:3 0.000350134
5 *51:A 4.07386e-06
6 *27:5 7.15328e-05
7 *27:6 2.03693e-05
8 *61:ZN 2.03693e-05

*RES
1 *27:6 *61:ZN 0.95
2 *27:5 *27:6 6
3 *27:3 *27:5 2.03571
4 *27:2 *51:A 0.19
5 *27:1 *27:3 7.92857
6 *27:0 *27:2 6
7 *27:0 *27:1 1.35714
*END

*D_NET *28 0.000784907

*CONN
*I *42:ZN O *C 44 45 *L 0 *D NOR2_X2
*I *61:A1 I *C 41 44 *L 0.0017 *D AOI22_X2

*CAP
1 *28:0 2.38443e-05
2 *28:1 3.04328e-05
3 *28:2 1.75489e-05
4 *28:3 6.58855e-06
5 *42:ZN 1.75489e-05
6 *28:5 0.000286131
7 *28:6 0.000286131
8 *28:7 2.16481e-05
9 *28:8 4.54924e-05
10 *28:9 2.38443e-05
11 *28:10 1.28483e-05
12 *61:A1 1.28483e-05

*RES
1 *28:10 *61:A1 0.599231
2 *28:9 *28:10 6
3 *28:8 *28:9 0.678571
4 *28:7 *28:8 0.616071
5 *28:6 *28:7 5
6 *28:5 *28:6 8.14286
7 *28:3 *28:5 5
8 *28:2 *42:ZN 0.818462
9 *28:1 *28:3 0.1875
10 *28:0 *28:2 6
11 *28:0 *28:1 0.678571
*END

*D_NET *29 0.000338802

*CONN
*I *56:B1 I *C 46 48 *L 0.00139 *D OAI21_X2
*I *57:ZN O *C 45 48 *L 0 *D AOI21_X2

*CAP
1 *29:0 2.38443e-05
2 *29:1 3.2629e-05
3 *29:2 1.44152e-05
4 *29:3 8.78473e-06
5 *56:B1 1.44152e-05
6 *29:5 0.000119221
7 *29:6 0.000119221
8 *29:7 1.5687e-06
9 *29:8 1.5687e-06
10 *29:9 1.56687e-06
11 *57:ZN 1.56687e-06

*RES
1 *29:9 *57:ZN 0.0730769
2 *29:8 *29:9 6
3 *29:7 *29:8 0.0446429
4 *29:6 *29:7 5
5 *29:5 *29:6 3.39286
6 *29:3 *29:5 5
7 *29:2 *56:B1 0.672308
8 *29:1 *29:3 0.25
9 *29:0 *29:2 6
10 *29:0 *29:1 0.678571
*END

*D_NET *30 0.0007046

*CONN
*I *43:ZN O *C 47 46 *L 0 *D NAND2_X2
*I *56:A I *C 46 48 *L 0.00109 *D OAI21_X2

*CAP
1 *30:0 2.38443e-05
2 *30:1 2.4158e-05
3 *30:2 1.75489e-05
4 *30:3 3.1374e-07
5 *43:ZN 1.75489e-05
6 *30:5 9.53771e-05
7 *30:6 9.53771e-05
8 *30:7 0.000206755
9 *30:8 0.000206755
10 *30:9 8.46109e-06
11 *56:A 8.46109e-06

*RES
1 *30:9 *56:A 0.394615
2 *30:8 *30:9 6
3 *30:7 *30:8 5.88393
4 *30:6 *30:7 5
5 *30:5 *30:6 2.71429
6 *30:3 *30:5 5
7 *30:2 *43:ZN 0.818462
8 *30:1 *30:3 0.00892857
9 *30:0 *30:2 6
10 *30:0 *30:1 0.678571
*END

*D_NET *31 0.00315907

*CONN
*I *52:A I *C 49 41 *L 0.00187 *D INV_X4
*I *46:A2 I *C 48 41 *L 0.00113 *D NOR2_X2
*I *54:B1 I *C 47 41 *L 0.00139 *D AOI21_X2
*I *57:B2 I *C 46 48 *L 0.00135 *D AOI21_X2
*I *47:ZN O *C 46 43 *L 0 *D NOR3_X2

*CAP
1 *31:0 2.38443e-05
2 *31:1 5.05122e-05
3 *31:2 1.97425e-05
4 *31:3 2.66679e-05
5 *52:A 1.97425e-05
6 *31:5 0.000119221
7 *31:6 0.000309975
8 *31:7 0.000357664
9 *31:8 2.66679e-05
10 *31:9 0.00016691
11 *31:10 2.66679e-05
12 *31:11 2.66679e-05
13 *31:12 0.000232269
14 *31:13 5.05122e-05
15 *31:14 4.07386e-06
16 *31:15 0.000768274
17 *31:16 2.38443e-05
18 *46:A2 4.07386e-06
19 *31:18 0.000536005
20 *31:19 7.15328e-05
21 *31:20 1.97425e-05
22 *31:22 7.15328e-05
23 *54:B1 1.97425e-05
24 *31:24 4.42374e-05
25 *31:25 4.07863e-06
26 *31:26 4.42374e-05
27 *31:27 2.79229e-05
28 *31:28 4.07386e-06
29 *31:29 2.38443e-05
30 *57:B2 4.07386e-06
31 *31:31 1.53553e-05
32 *47:ZN 1.53553e-05

*RES
1 *31:31 *47:ZN 0.716154
2 *31:29 *31:31 6
3 *31:28 *57:B2 0.19
4 *31:27 *31:29 0.678571
5 *31:26 *31:28 6
6 *31:25 *31:27 0.116071
7 *31:24 *31:26 1.25893
8 *31:22 *31:25 5
9 *31:21 *31:24 5
10 *31:20 *54:B1 0.920769
11 *31:19 *31:22 2.03571
12 *31:18 *31:21 5
13 *31:16 *31:20 6
14 *31:15 *31:19 5
15 *31:15 *31:18 6.3
16 *31:14 *46:A2 0.19
17 *31:13 *31:16 0.678571
18 *31:12 *31:15 2.73
19 *31:11 *31:14 6
20 *31:10 *31:13 0.758929
21 *31:9 *31:12 5
22 *31:8 *31:11 0.758929
23 *31:7 *31:10 5
24 *31:7 *31:9 4.75
25 *31:6 *31:8 5
26 *31:6 *31:7 5.42857
27 *31:5 *31:6 3.39286
28 *31:3 *31:5 5
29 *31:2 *52:A 0.920769
30 *31:1 *31:3 0.758929
31 *31:0 *31:2 6
32 *31:0 *31:1 0.678571
*END

*D_NET *32 0.00130371

*CONN
*I *46:ZN O *C 48 41 *L 0 *D NOR2_X2
*I *54:A I *C 47 41 *L 0.00115 *D AOI21_X2
*I *44:C2 I *C 46 42 *L 0.00165 *D AOI221_X2

*CAP
1 *32:0 6.58855e-06
2 *32:1 6.58855e-06
3 *32:2 6.26748e-06
4 *32:3 0.000119221
5 *46:ZN 6.26748e-06
6 *32:5 0.000298681
7 *32:6 0.00017946
8 *32:7 3.10603e-05
9 *32:8 5.36005e-05
10 *32:9 5.49046e-05
11 *32:10 5.36005e-05
12 *32:11 2.38443e-05
13 *32:12 5.89832e-05
14 *32:13 1.97425e-05
15 *32:14 5.89832e-05
16 *54:A 1.97425e-05
17 *32:16 6.61992e-05
18 *32:17 0.000137732
19 *32:18 7.15328e-05
20 *32:19 1.53553e-05
21 *44:C2 1.53553e-05

*RES
1 *32:19 *44:C2 0.716154
2 *32:18 *32:19 6
3 *32:17 *32:18 2.03571
4 *32:16 *32:17 1.88393
5 *32:14 *32:16 5
6 *32:13 *54:A 0.920769
7 *32:12 *32:14 1.67857
8 *32:11 *32:13 6
9 *32:10 *32:12 5
10 *32:9 *32:11 0.678571
11 *32:8 *32:10 0.63
12 *32:7 *32:9 0.883929
13 *32:6 *32:8 5
14 *32:5 *32:7 5
15 *32:5 *32:6 5.10714
16 *32:3 *32:5 3.39286
17 *32:2 *46:ZN 0.292308
18 *32:1 *32:3 5
19 *32:0 *32:2 6
20 *32:0 *32:1 0.1875
*END

*D_NET *33 0.00139042

*CONN
*I *49:A I *C 49 44 *L 0.00187 *D INV_X4
*I *44:ZN O *C 46 42 *L 0 *D AOI221_X2

*CAP
1 *33:0 2.38443e-05
2 *33:1 0.00020801
3 *33:2 1.97425e-05
4 *33:3 0.000184166
5 *49:A 1.97425e-05
6 *33:5 0.00033382
7 *33:6 0.00033382
8 *33:7 7.34152e-05
9 *33:8 0.000121104
10 *33:9 4.76885e-05
11 *33:10 1.2535e-05
12 *44:ZN 1.2535e-05

*RES
1 *33:10 *44:ZN 0.584615
2 *33:9 *33:10 6
3 *33:8 *33:9 1.35714
4 *33:7 *33:8 2.08929
5 *33:6 *33:7 5
6 *33:5 *33:6 9.5
7 *33:3 *33:5 5
8 *33:2 *49:A 0.920769
9 *33:1 *33:3 5.24107
10 *33:0 *33:2 6
11 *33:0 *33:1 0.678571
*END

*D_NET *34 0.00113884

*CONN
*I *58:ZN O *C 42 41 *L 0 *D OAI21_X2
*I *39:D I *C 41 44 *L 0.00112 *D DFF_X1

*CAP
1 *34:0 2.38443e-05
2 *34:1 8.31412e-05
3 *34:2 1.2535e-06
4 *34:3 5.92969e-05
5 *58:ZN 1.2535e-06
6 *34:5 0.000143066
7 *34:6 0.000143066
8 *34:7 0.000302759
9 *34:8 0.000326604
10 *34:9 2.38443e-05
11 *34:10 1.53553e-05
12 *39:D 1.53553e-05

*RES
1 *34:10 *39:D 0.716154
2 *34:9 *34:10 6
3 *34:8 *34:9 0.678571
4 *34:7 *34:8 8.61607
5 *34:6 *34:7 5
6 *34:5 *34:6 4.07143
7 *34:3 *34:5 5
8 *34:2 *58:ZN 0.0584615
9 *34:1 *34:3 1.6875
10 *34:0 *34:2 6
11 *34:0 *34:1 0.678571
*END

*D_NET *35 0.000890323

*CONN
*I *41:D I *C 49 48 *L 0.00112 *D DFF_X1
*I *56:ZN O *C 46 48 *L 0 *D OAI21_X2

*CAP
1 *35:0 2.16481e-05
2 *35:1 2.16481e-05
3 *35:2 8.46109e-06
4 *35:3 0.000357664
5 *41:D 8.46109e-06
6 *35:5 0.000357664
7 *35:6 1.09809e-05
8 *35:7 3.48252e-05
9 *35:8 2.38443e-05
10 *35:9 2.25629e-05
11 *56:ZN 2.25629e-05

*RES
1 *35:9 *56:ZN 1.05231
2 *35:8 *35:9 6
3 *35:7 *35:8 0.678571
4 *35:6 *35:7 0.3125
5 *35:5 *35:6 5
6 *35:3 *35:5 10.1786
7 *35:2 *41:D 0.394615
8 *35:1 *35:3 5
9 *35:0 *35:2 6
10 *35:0 *35:1 0.616071
*END

