*SPEF "IEEE 1481-1998"
*DESIGN "Adder"
*DATE "Thu May 25 16:53:11 2017"
*VENDOR "Silicon Perspective, A Cadence Company"
*PROGRAM "First Encounter"
*VERSION "08.10-p004_1"
*DESIGN_FLOW "PIN_CAP NONE" "NAME_SCOPE LOCAL"
*DIVIDER /
*DELIMITER :
*BUS_DELIMITER []
*T_UNIT 1 NS
*C_UNIT 1 PF
*R_UNIT 1 OHM
*L_UNIT 1 HENRY

*NAME_MAP

*1 clock__L2_N0
*2 clock__L1_N0
*3 Sum[8]
*4 Sum[7]
*5 Sum[6]
*6 Sum[5]
*7 Sum[4]
*8 Sum[3]
*9 Sum[2]
*10 Sum[1]
*11 Sum[0]
*12 X[7]
*13 X[6]
*14 X[5]
*15 X[4]
*16 X[3]
*17 X[2]
*18 X[1]
*19 X[0]
*20 Y[7]
*21 Y[6]
*22 Y[5]
*23 Y[4]
*24 Y[3]
*25 Y[2]
*26 Y[1]
*27 Y[0]
*28 clock
*29 S[8]
*30 S[7]
*31 S[6]
*32 S[5]
*33 S[4]
*34 S[3]
*35 S[2]
*36 S[1]
*37 S[0]
*38 C[6]
*39 C[5]
*40 C[4]
*41 C[3]
*42 a0/Cout
*43 a0/n1
*44 a0/n3
*45 a1/Cout
*46 a1/n1
*47 a1/n3
*48 a2/Cout
*49 a2/n1
*50 a2/n3
*51 a3/n1
*52 a3/n3
*53 a4/n2
*54 a4/n3
*55 a5/n1
*56 a5/n3
*57 a6/n1
*58 a6/n3
*59 a7/n1
*60 a7/n3
*61 clock__L2_I0
*62 clock__L1_I0
*63 a0/U1
*64 a0/U2
*65 a0/U3
*66 a0/U4
*67 a1/U1
*68 a1/U2
*69 a1/U3
*70 a1/U4
*71 a2/U1
*72 a2/U2
*73 a2/U3
*74 a2/U4
*75 a3/U1
*76 a3/U2
*77 a3/U3
*78 a3/U4
*79 a4/U2
*80 a4/U3
*81 a4/U4
*82 a4/U1
*83 a5/U2
*84 a5/U3
*85 a5/U4
*86 a5/U1
*87 a6/U2
*88 a6/U3
*89 a6/U4
*90 a6/U1
*91 a7/U2
*92 a7/U3
*93 a7/U4
*94 a7/U1
*95 Sum_reg_0_
*96 Sum_reg_1_
*97 Sum_reg_2_
*98 Sum_reg_3_
*99 Sum_reg_4_
*100 Sum_reg_5_
*101 Sum_reg_6_
*102 Sum_reg_7_
*103 Sum_reg_8_


*PORTS

*3 O *C 45 90
*4 O *C 45 90
*5 O *C 50 0
*6 O *C 0 45
*7 O *C 40 0
*8 O *C 43 0
*9 O *C 0 47
*10 O *C 46 0
*11 O *C 0 47
*28 I *C 90 44
*12 I *C 49 90
*13 I *C 45 0
*14 I *C 0 44
*15 I *C 44 0
*16 I *C 45 0
*17 I *C 0 49
*18 I *C 90 47
*19 I *C 0 45
*20 I *C 49 90
*21 I *C 46 0
*22 I *C 0 44
*23 I *C 44 0
*24 I *C 46 0
*25 I *C 44 90
*26 I *C 50 0
*27 I *C 44 90


*D_NET *1 0.00682354

*CONN
*I *100:CK I *C 44 45 *L 0.000983 *D DFF_X2
*I *61:ZN O *C 45 45 *L 0 *D INV_X4
*I *99:CK I *C 44 42 *L 0.000983 *D DFF_X2
*I *97:CK I *C 43 46 *L 0.000983 *D DFF_X2
*I *96:CK I *C 49 41 *L 0.000983 *D DFF_X2
*I *102:CK I *C 48 46 *L 0.000983 *D DFF_X2
*I *101:CK I *C 47 44 *L 0.000983 *D DFF_X2
*I *98:CK I *C 40 41 *L 0.000983 *D DFF_X2
*I *95:CK I *C 43 48 *L 0.000983 *D DFF_X2
*I *103:CK I *C 48 48 *L 0.000983 *D DFF_X2

*CAP
1 *1:0 4.14137e-05
2 *1:1 1.75695e-05
3 *1:2 4.76885e-05
4 *1:3 4.07386e-06
5 *1:4 3.23153e-05
6 *1:5 1.97425e-05
7 *100:CK 4.07386e-06
8 *1:7 8.47099e-06
9 *61:ZN 1.97425e-05
10 *1:9 0.00031625
11 *1:10 2.13343e-05
12 *1:11 0.000294916
13 *1:12 0.000553872
14 *1:13 0.00033947
15 *1:14 0.000160802
16 *1:15 0.000571739
17 *1:16 0.000142935
18 *1:17 0.000196535
19 *1:18 7.02778e-05
20 *1:19 0.000178668
21 *1:20 2.50992e-06
22 *1:21 0.000105417
23 *1:22 8.78473e-06
24 *1:23 0.000121731
25 *1:24 0.00107299
26 *1:25 2.50992e-06
27 *1:26 0.000110437
28 *1:27 8.78473e-06
29 *1:28 5.14534e-05
30 *1:29 0.000160802
31 *1:30 0.00050324
32 *1:31 0.000569753
33 *1:32 9.09847e-06
34 *1:33 5.01985e-06
35 *1:34 0.000196535
36 *1:35 9.09847e-06
37 *1:36 9.09847e-06
38 *1:37 0.000160802
39 *1:38 8.47099e-06
40 *1:39 8.47099e-06
41 *1:40 9.09847e-06
42 *1:41 8.47099e-06
43 *1:42 0.000196535
44 *1:43 3.29427e-05
45 *1:44 9.09847e-06
46 *1:45 5.14534e-05
47 *1:46 3.23153e-05
48 *1:47 8.47099e-06
49 *1:48 4.07386e-06
50 *1:49 8.47099e-06
51 *1:50 1.88244e-05
52 *1:51 2.38443e-05
53 *1:52 4.07386e-06
54 *1:53 5.14534e-05
55 *1:54 2.38443e-05
56 *1:55 4.07386e-06
57 *99:CK 4.07386e-06
58 *1:57 4.07386e-06
59 *1:58 1.88244e-05
60 *1:59 1.97425e-05
61 *97:CK 4.07386e-06
62 *1:61 9.09847e-06
63 *1:62 1.97425e-05
64 *96:CK 4.07386e-06
65 *102:CK 4.07386e-06
66 *1:65 8.47099e-06
67 *101:CK 1.97425e-05
68 *1:67 9.09847e-06
69 *98:CK 1.97425e-05
70 *1:69 8.47099e-06
71 *1:70 4.07386e-06
72 *1:71 4.07386e-06
73 *95:CK 4.07386e-06
74 *103:CK 4.07386e-06

*RES
1 *1:71 *103:CK 0.19
2 *1:70 *95:CK 0.19
3 *1:69 *1:71 6
4 *1:67 *1:70 6
5 *1:65 *1:69 0.241071
6 *1:62 *98:CK 0.920769
7 *1:61 *1:67 0.258929
8 *1:59 *101:CK 0.920769
9 *1:58 *1:65 5
10 *1:57 *102:CK 0.19
11 *1:55 *96:CK 0.19
12 *1:54 *1:62 6
13 *1:53 *1:61 5
14 *1:52 *97:CK 0.19
15 *1:51 *1:59 6
16 *1:50 *1:58 0.535714
17 *1:49 *1:57 6
18 *1:48 *99:CK 0.19
19 *1:47 *1:55 6
20 *1:46 *1:54 0.678571
21 *1:45 *1:53 1.46429
22 *1:44 *1:52 6
23 *1:43 *1:51 0.678571
24 *1:42 *1:50 5
25 *1:41 *1:49 0.241071
26 *1:40 *1:48 6
27 *1:39 *1:47 0.241071
28 *1:38 *1:46 0.241071
29 *1:37 *1:45 5
30 *1:36 *1:44 0.258929
31 *1:35 *1:43 0.258929
32 *1:34 *1:42 2.31
33 *1:33 *1:41 5
34 *1:32 *1:40 0.258929
35 *1:31 *1:39 5
36 *1:30 *1:38 5
37 *1:29 *1:37 1.89
38 *1:28 *1:36 5
39 *1:27 *1:35 5
40 *1:26 *1:34 5
41 *1:26 *1:33 0.142857
42 *1:25 *1:32 5
43 *1:24 *1:31 16.2143
44 *1:24 *1:30 14.3214
45 *1:23 *1:29 5
46 *1:23 *1:28 1.46429
47 *1:22 *1:27 0.25
48 *1:21 *1:26 3
49 *1:20 *1:25 0.0714286
50 *1:19 *1:24 5
51 *1:18 *1:23 2
52 *1:17 *1:22 5
53 *1:16 *1:21 5
54 *1:15 *1:20 5
55 *1:15 *1:19 2.1
56 *1:14 *1:18 5
57 *1:13 *1:17 2.31
58 *1:13 *1:16 1.68
59 *1:12 *1:15 4.62
60 *1:12 *1:14 1.89
61 *1:11 *1:13 5
62 *1:10 *1:12 5
63 *1:9 *1:11 8.39286
64 *1:9 *1:10 0.607143
65 *1:7 *1:9 5
66 *1:5 *61:ZN 0.920769
67 *1:4 *1:7 0.241071
68 *1:3 *100:CK 0.19
69 *1:2 *1:5 6
70 *1:2 *1:4 0.678571
71 *1:1 *1:3 6
72 *1:0 *1:2 0.678571
73 *1:0 *1:1 0.5
*END

*D_NET *2 0.00156736

*CONN
*I *62:ZN O *C 50 45 *L 0 *D INV_X8
*I *61:A I *C 45 45 *L 0.00187 *D INV_X4

*CAP
1 *2:0 2.38443e-05
2 *2:1 7.2474e-05
3 *2:2 1.53553e-05
4 *2:3 4.86298e-05
5 *62:ZN 1.53553e-05
6 *2:5 0.000643795
7 *2:6 0.000643795
8 *2:7 8.47099e-06
9 *2:8 3.23153e-05
10 *2:9 2.38443e-05
11 *2:10 1.97425e-05
12 *61:A 1.97425e-05

*RES
1 *2:10 *61:A 0.920769
2 *2:9 *2:10 6
3 *2:8 *2:9 0.678571
4 *2:7 *2:8 0.241071
5 *2:6 *2:7 5
6 *2:5 *2:6 18.3214
7 *2:3 *2:5 5
8 *2:2 *62:ZN 0.716154
9 *2:1 *2:3 1.38393
10 *2:0 *2:2 6
11 *2:0 *2:1 0.678571
*END

*D_NET *3 0.0107299

*CONN
*P *3 O *C 45 90 *L 0
*I *103:Q O *C 45 47 *L 0 *D DFF_X2

*CAP
1 *3:0 0.00535649
2 *3 0.00535649
3 *3:2 8.46109e-06
4 *103:Q 8.46109e-06

*RES
1 *3:2 *103:Q 0.394615
2 *3:0 *3:2 6
3 *3:0 *3 152.438
*END

*D_NET *4 0.010937

*CONN
*P *4 O *C 45 90 *L 0
*I *102:Q O *C 45 47 *L 0 *D DFF_X2

*CAP
1 *4:0 2.38443e-05
2 *4:1 0.00546002
3 *4:2 8.46109e-06
4 *4 0.00543618
5 *102:Q 8.46109e-06

*RES
1 *4:2 *102:Q 0.394615
2 *4:1 *4 154.705
3 *4:0 *4:2 6
4 *4:0 *4:1 0.678571
*END

*D_NET *5 0.0111026

*CONN
*P *5 O *C 50 0 *L 0
*I *101:Q O *C 50 44 *L 0 *D DFF_X2

*CAP
1 *5:0 2.38443e-05
2 *5:1 0.00553595
3 *5:2 1.53553e-05
4 *5 0.0055121
5 *101:Q 1.53553e-05

*RES
1 *5:2 *101:Q 0.716154
2 *5:1 *5 156.866
3 *5:0 *5:2 6
4 *5:0 *5:1 0.678571
*END

*D_NET *6 0.0103973

*CONN
*I *100:Q O *C 41 45 *L 0 *D DFF_X2
*P *6 O *C 0 45 *L 0

*CAP
1 *6:0 4.07863e-06
2 *6:1 4.07863e-06
3 *6:2 8.46109e-06
4 *6:3 0.00518613
5 *100:Q 8.46109e-06
6 *6 0.00518613

*RES
1 *6:3 *6 147.589
2 *6:2 *100:Q 0.394615
3 *6:1 *6:3 5
4 *6:0 *6:2 6
5 *6:0 *6:1 0.116071
*END

*D_NET *7 0.0108002

*CONN
*I *99:Q O *C 42 42 *L 0 *D DFF_X2
*P *7 O *C 40 0 *L 0

*CAP
1 *7:0 4.07863e-06
2 *7:1 4.07863e-06
3 *7:2 8.46109e-06
4 *7:3 0.000143066
5 *99:Q 8.46109e-06
6 *7:5 0.000143066
7 *7:6 0.00524448
8 *7 0.00524448

*RES
1 *7:6 *7 149.25
2 *7:5 *7:6 5
3 *7:3 *7:5 4.07143
4 *7:2 *99:Q 0.394615
5 *7:1 *7:3 5
6 *7:0 *7:2 6
7 *7:0 *7:1 0.116071
*END

*D_NET *8 0.0103998

*CONN
*P *8 O *C 43 0 *L 0
*I *98:Q O *C 43 41 *L 0 *D DFF_X2

*CAP
1 *8:0 2.38443e-05
2 *8:1 0.00518456
3 *8:2 1.53553e-05
4 *8 0.00516072
5 *98:Q 1.53553e-05

*RES
1 *8:2 *98:Q 0.716154
2 *8:1 *8 146.866
3 *8:0 *8:2 6
4 *8:0 *8:1 0.678571
*END

*D_NET *9 0.0102066

*CONN
*I *97:Q O *C 41 47 *L 0 *D DFF_X2
*P *9 O *C 0 47 *L 0

*CAP
1 *9:0 4.07863e-06
2 *9:1 4.07863e-06
3 *9:2 8.46109e-06
4 *9:3 0.00509075
5 *97:Q 8.46109e-06
6 *9 0.00509075

*RES
1 *9:3 *9 144.875
2 *9:2 *97:Q 0.394615
3 *9:1 *9:3 5
4 *9:0 *9:2 6
5 *9:0 *9:1 0.116071
*END

*D_NET *10 0.0103384

*CONN
*P *10 O *C 46 0 *L 0
*I *96:Q O *C 46 41 *L 0 *D DFF_X2

*CAP
1 *10:0 0.00516072
2 *10 0.00516072
3 *10:2 8.46109e-06
4 *96:Q 8.46109e-06

*RES
1 *10:2 *96:Q 0.394615
2 *10:0 *10:2 6
3 *10:0 *10 146.866
*END

*D_NET *11 0.0102066

*CONN
*I *95:Q O *C 41 47 *L 0 *D DFF_X2
*P *11 O *C 0 47 *L 0

*CAP
1 *11:0 4.07863e-06
2 *11:1 4.07863e-06
3 *11:2 8.46109e-06
4 *11:3 0.00509075
5 *95:Q 8.46109e-06
6 *11 0.00509075

*RES
1 *11:3 *11 144.875
2 *11:2 *95:Q 0.394615
3 *11:1 *11:3 5
4 *11:0 *11:2 6
5 *11:0 *11:1 0.116071
*END

*D_NET *12 0.0108742

*CONN
*P *12 I *C 49 90 *L 0
*I *92:A2 I *C 48 48 *L 0.000723 *D AOI22_X1
*I *93:A I *C 49 48 *L 0.00124 *D XOR2_X1

*CAP
1 *12:0 7.2474e-05
2 *12:1 2.47855e-05
3 *12:2 0.00539633
4 *12:3 4.07386e-06
5 *12 0.00530096
6 *12:5 4.76885e-05
7 *92:A2 4.07386e-06
8 *12:7 1.19082e-05
9 *93:A 1.19082e-05

*RES
1 *12:7 *93:A 0.555385
2 *12:5 *12:7 6
3 *12:3 *92:A2 0.19
4 *12:2 *12:5 1.35714
5 *12:2 *12 150.857
6 *12:1 *12:3 6
7 *12:0 *12:2 1.35714
8 *12:0 *12:1 0.705357
*END

*D_NET *13 0.0116156

*CONN
*I *89:A I *C 46 42 *L 0.00124 *D XOR2_X1
*P *13 I *C 45 0 *L 0
*I *88:A2 I *C 45 44 *L 0.000723 *D AOI22_X1

*CAP
1 *13:0 2.38443e-05
2 *13:1 2.50992e-05
3 *13:2 1.19082e-05
4 *13:3 1.25496e-06
5 *89:A 1.19082e-05
6 *13:5 0.000129261
7 *13:6 0.000129261
8 *13:7 0.00530645
9 *13:8 0.000107201
10 *13:9 0.00519925
11 *13:10 1.00397e-05
12 *13:11 5.77282e-05
13 *13:12 1.00397e-05
14 *13:13 5.77282e-05
15 *13:14 7.87488e-05
16 *13:15 0.000184479
17 *13:16 7.87488e-05
18 *13 0.000184479
19 *13:18 4.07386e-06
20 *88:A2 4.07386e-06

*RES
1 *13:18 *88:A2 0.19
2 *13:16 *13:18 6
3 *13:15 *13 5.25
4 *13:14 *13:16 2.24107
5 *13:13 *13:15 5
6 *13:12 *13:14 5
7 *13:11 *13:13 1.64286
8 *13:10 *13:12 0.285714
9 *13:9 *13:11 5
10 *13:8 *13:10 5
11 *13:7 *13:9 61.11
12 *13:7 *13:8 1.26
13 *13:6 *13:7 5
14 *13:5 *13:6 3.67857
15 *13:3 *13:5 5
16 *13:2 *89:A 0.555385
17 *13:1 *13:3 0.0357143
18 *13:0 *13:2 6
19 *13:0 *13:1 0.678571
*END

*D_NET *14 0.010632

*CONN
*I *84:A2 I *C 41 44 *L 0.000723 *D AOI22_X1
*P *14 I *C 0 44 *L 0
*I *85:A I *C 40 42 *L 0.00124 *D XOR2_X1

*CAP
1 *14:0 2.38443e-05
2 *14:1 3.23153e-05
3 *14:2 4.07386e-06
4 *14:3 0.000185421
5 *84:A2 4.07386e-06
6 *14:5 0.000200794
7 *14:6 0.00506691
8 *14:7 2.38443e-05
9 *14 0.00506691
10 *14:9 1.19082e-05
11 *85:A 1.19082e-05

*RES
1 *14:9 *85:A 0.555385
2 *14:7 *14:9 6
3 *14:6 *14 144.196
4 *14:5 *14:7 0.678571
5 *14:3 *14:6 5
6 *14:3 *14:5 5.03571
7 *14:2 *84:A2 0.19
8 *14:1 *14:3 0.241071
9 *14:0 *14:2 6
10 *14:0 *14:1 0.678571
*END

*D_NET *15 0.0110424

*CONN
*P *15 I *C 44 0 *L 0
*I *80:A2 I *C 44 44 *L 0.000723 *D AOI22_X1
*I *81:A I *C 44 41 *L 0.00124 *D XOR2_X1

*CAP
1 *15:0 0.000376175
2 *15:1 0.0055052
3 *15:2 4.07386e-06
4 *15:3 2.38443e-05
5 *15 0.00510518
6 *80:A2 4.07386e-06
7 *15:6 1.19082e-05
8 *81:A 1.19082e-05

*RES
1 *15:6 *81:A 0.555385
2 *15:3 *15:6 6
3 *15:2 *80:A2 0.19
4 *15:1 *15 145.286
5 *15:1 *15:3 0.678571
6 *15:0 *15:2 6
7 *15:0 *15:1 10.7054
*END

*D_NET *16 0.0103823

*CONN
*P *16 I *C 45 0 *L 0
*I *75:A I *C 45 41 *L 0.00187 *D INV_X4

*CAP
1 *16:0 2.38443e-05
2 *16:1 0.00517138
3 *16:2 1.97425e-05
4 *16 0.00514754
5 *75:A 1.97425e-05

*RES
1 *16:2 *75:A 0.920769
2 *16:1 *16 146.491
3 *16:0 *16:2 6
4 *16:0 *16:1 0.678571
*END

*D_NET *17 0.0104287

*CONN
*I *71:A I *C 41 49 *L 0.00187 *D INV_X4
*P *17 I *C 0 49 *L 0

*CAP
1 *17:0 2.38443e-05
2 *17:1 3.23153e-05
3 *17:2 1.97425e-05
4 *17:3 8.47099e-06
5 *71:A 1.97425e-05
6 *17:5 0.00516228
7 *17 0.00516228

*RES
1 *17:5 *17 146.911
2 *17:3 *17:5 5
3 *17:2 *71:A 0.920769
4 *17:1 *17:3 0.241071
5 *17:0 *17:2 6
6 *17:0 *17:1 0.678571
*END

*D_NET *18 0.0102455

*CONN
*I *67:A I *C 50 47 *L 0.00187 *D INV_X4
*P *18 I *C 90 47 *L 0

*CAP
1 *18:0 2.38443e-05
2 *18:1 3.23153e-05
3 *18:2 1.97425e-05
4 *18:3 8.47099e-06
5 *67:A 1.97425e-05
6 *18:5 0.00507067
7 *18 0.00507067

*RES
1 *18:5 *18 144.304
2 *18:3 *18:5 5
3 *18:2 *67:A 0.920769
4 *18:1 *18:3 0.241071
5 *18:0 *18:2 6
6 *18:0 *18:1 0.678571
*END

*D_NET *19 0.0102731

*CONN
*I *63:A I *C 40 45 *L 0.00187 *D INV_X4
*P *19 I *C 0 45 *L 0

*CAP
1 *19:0 2.38443e-05
2 *19:1 4.98847e-05
3 *19:2 1.97425e-05
4 *19:3 2.60405e-05
5 *63:A 1.97425e-05
6 *19:5 0.00506691
7 *19 0.00506691

*RES
1 *19:5 *19 144.196
2 *19:3 *19:5 5
3 *19:2 *63:A 0.920769
4 *19:1 *19:3 0.741071
5 *19:0 *19:2 6
6 *19:0 *19:1 0.678571
*END

*D_NET *20 0.010989

*CONN
*P *20 I *C 49 90 *L 0
*I *92:A1 I *C 48 47 *L 0.000778 *D AOI22_X1
*I *93:B I *C 49 48 *L 0.00135 *D XOR2_X1

*CAP
1 *20:0 0.000134908
2 *20:1 3.95313e-05
3 *20:2 0.00544057
4 *20:3 1.19082e-05
5 *20 0.00532135
6 *20:5 2.38443e-05
7 *92:A1 1.19082e-05
8 *20:7 2.50699e-06
9 *93:B 2.50699e-06

*RES
1 *20:7 *93:B 0.116923
2 *20:5 *20:7 6
3 *20:3 *92:A1 0.555385
4 *20:2 *20:5 0.678571
5 *20:2 *20 151.438
6 *20:1 *20:3 6
7 *20:0 *20:2 2.71429
8 *20:0 *20:1 1.125
*END

*D_NET *21 0.0113021

*CONN
*P *21 I *C 46 0 *L 0
*I *89:B I *C 46 42 *L 0.00135 *D XOR2_X1
*I *88:A1 I *C 45 44 *L 0.000778 *D AOI22_X1

*CAP
1 *21:0 2.38443e-05
2 *21:1 0.00539131
3 *21:2 2.50699e-06
4 *21:3 9.19259e-05
5 *21 0.00527554
6 *89:B 2.50699e-06
7 *21:6 7.02778e-05
8 *21:7 7.02778e-05
9 *21:8 5.36005e-05
10 *21:9 5.36005e-05
11 *21:10 1.25496e-06
12 *21:11 1.25496e-06
13 *21:12 9.63183e-05
14 *21:13 0.000120163
15 *21:14 2.38443e-05
16 *21:15 1.19082e-05
17 *88:A1 1.19082e-05

*RES
1 *21:15 *88:A1 0.555385
2 *21:14 *21:15 6
3 *21:13 *21:14 0.678571
4 *21:12 *21:13 2.74107
5 *21:11 *21:12 5
6 *21:10 *21:11 0.0357143
7 *21:9 *21:10 5
8 *21:8 *21:9 0.63
9 *21:7 *21:8 5
10 *21:6 *21:7 2
11 *21:3 *21:6 5
12 *21:2 *89:B 0.116923
13 *21:1 *21 150.134
14 *21:1 *21:3 2.61607
15 *21:0 *21:2 6
16 *21:0 *21:1 0.678571
*END

*D_NET *22 0.010883

*CONN
*I *84:A1 I *C 41 44 *L 0.000778 *D AOI22_X1
*P *22 I *C 0 44 *L 0
*I *85:B I *C 40 42 *L 0.00135 *D XOR2_X1

*CAP
1 *22:0 2.38443e-05
2 *22:1 3.23153e-05
3 *22:2 1.19082e-05
4 *22:3 0.000240953
5 *84:A1 1.19082e-05
6 *22:5 0.00028017
7 *22:6 0.0051146
8 *22:7 4.76885e-05
9 *22 0.0051146
10 *22:9 2.50699e-06
11 *85:B 2.50699e-06

*RES
1 *22:9 *85:B 0.116923
2 *22:7 *22:9 6
3 *22:6 *22 145.554
4 *22:5 *22:7 1.35714
5 *22:3 *22:6 5
6 *22:3 *22:5 6.61607
7 *22:2 *84:A1 0.555385
8 *22:1 *22:3 0.241071
9 *22:0 *22:2 6
10 *22:0 *22:1 0.678571
*END

*D_NET *23 0.0112175

*CONN
*I *80:A1 I *C 44 44 *L 0.000778 *D AOI22_X1
*I *81:B I *C 44 41 *L 0.00135 *D XOR2_X1
*P *23 I *C 44 0 *L 0

*CAP
1 *23:0 2.38443e-05
2 *23:1 0.000414765
3 *23:2 1.19082e-05
4 *23:3 0.005391
5 *80:A1 1.19082e-05
6 *23:5 0.00497624
7 *23:6 2.38443e-05
8 *23:7 2.76092e-05
9 *23:8 2.50699e-06
10 *23:9 2.76092e-05
11 *81:B 2.50699e-06
12 *23:11 0.000151868
13 *23 0.000151868

*RES
1 *23:11 *23 1.785
2 *23:9 *23:11 5
3 *23:8 *81:B 0.116923
4 *23:7 *23:9 0.785714
5 *23:6 *23:8 6
6 *23:5 *23:7 5
7 *23:3 *23:6 0.678571
8 *23:3 *23:5 141.616
9 *23:2 *80:A1 0.555385
10 *23:1 *23:3 11.125
11 *23:0 *23:2 6
12 *23:0 *23:1 0.678571
*END

*D_NET *24 0.0105562

*CONN
*I *77:A I *C 45 41 *L 0.00187 *D INV_X4
*P *24 I *C 46 0 *L 0

*CAP
1 *24:0 2.38443e-05
2 *24:1 3.23153e-05
3 *24:2 1.97425e-05
4 *24:3 8.47099e-06
5 *77:A 1.97425e-05
6 *24:6 0.00522605
7 *24 0.00522605

*RES
1 *24:6 *24 61.425
2 *24:5 *24:6 5
3 *24:3 *24:5 5
4 *24:2 *77:A 0.920769
5 *24:1 *24:3 0.241071
6 *24:0 *24:2 6
7 *24:0 *24:1 0.678571
*END

*D_NET *25 0.0109859

*CONN
*P *25 I *C 44 90 *L 0
*I *73:A I *C 44 47 *L 0.00187 *D INV_X4

*CAP
1 *25:0 2.38443e-05
2 *25:1 0.0054732
3 *25:2 1.97425e-05
4 *25 0.00544936
5 *73:A 1.97425e-05

*RES
1 *25:2 *73:A 0.920769
2 *25:1 *25 155.08
3 *25:0 *25:2 6
4 *25:0 *25:1 0.678571
*END

*D_NET *26 0.0103929

*CONN
*I *69:A I *C 50 41 *L 0.00187 *D INV_X4
*P *26 I *C 50 0 *L 0

*CAP
1 *26:0 0.00498063
2 *26:1 0.00498063
3 *26:2 1.97425e-05
4 *26:3 2.63542e-05
5 *69:A 1.97425e-05
6 *26:5 2.63542e-05
7 *26:6 0.000169735
8 *26 0.000169735

*RES
1 *26:6 *26 1.995
2 *26:5 *26:6 5
3 *26:3 *26:5 0.75
4 *26:2 *69:A 0.920769
5 *26:1 *26:3 5
6 *26:0 *26:2 6
7 *26:0 *26:1 141.741
*END

*D_NET *27 0.0111609

*CONN
*I *65:A I *C 44 47 *L 0.00187 *D INV_X4
*P *27 I *C 44 90 *L 0

*CAP
1 *27:0 7.15328e-05
2 *27:1 0.000132712
3 *27:2 1.97425e-05
4 *27:3 6.11794e-05
5 *65:A 1.97425e-05
6 *27:5 5.64733e-05
7 *27:6 5.64733e-05
8 *27:7 0.00537154
9 *27 0.00537154

*RES
1 *27:7 *27 63.135
2 *27:6 *27:7 5
3 *27:5 *27:6 1.60714
4 *27:3 *27:5 5
5 *27:2 *65:A 0.920769
6 *27:1 *27:3 1.74107
7 *27:0 *27:2 6
8 *27:0 *27:1 2.03571
*END

*D_NET *28 0.0103295

*CONN
*I *62:A I *C 49 45 *L 0.00364 *D INV_X8
*P *28 I *C 90 44 *L 0

*CAP
1 *28:0 2.38443e-05
2 *28:1 5.05122e-05
3 *28:2 1.97425e-05
4 *28:3 2.66679e-05
5 *62:A 1.97425e-05
6 *28:5 0.00509452
7 *28 0.00509452

*RES
1 *28:5 *28 144.982
2 *28:3 *28:5 5
3 *28:2 *62:A 0.920769
4 *28:1 *28:3 0.758929
5 *28:0 *28:2 6
6 *28:0 *28:1 0.678571
*END

*D_NET *29 0.00115826

*CONN
*I *94:ZN O *C 50 50 *L 0 *D INV_X2
*I *103:D I *C 47 48 *L 0.00112 *D DFF_X2

*CAP
1 *29:0 0.000184166
2 *29:1 0.000184166
3 *29:2 1.97425e-05
4 *29:3 0.000309975
5 *94:ZN 1.97425e-05
6 *29:5 0.000309975
7 *29:6 5.6787e-05
8 *29:7 5.6787e-05
9 *29:8 8.46109e-06
10 *103:D 8.46109e-06

*RES
1 *29:8 *103:D 0.394615
2 *29:7 *29:8 6
3 *29:6 *29:7 1.61607
4 *29:5 *29:6 5
5 *29:3 *29:5 8.82143
6 *29:2 *94:ZN 0.920769
7 *29:1 *29:3 5
8 *29:0 *29:2 6
9 *29:0 *29:1 5.24107
*END

*D_NET *30 0.000402181

*CONN
*I *91:Z O *C 48 46 *L 0 *D XOR2_X1
*I *102:D I *C 47 46 *L 0.00112 *D DFF_X2

*CAP
1 *30:0 4.07863e-06
2 *30:1 4.07863e-06
3 *30:2 6.26748e-06
4 *30:3 0.000143066
5 *91:Z 6.26748e-06
6 *30:5 0.000143066
7 *30:6 3.92175e-05
8 *30:7 3.92175e-05
9 *30:8 8.46109e-06
10 *102:D 8.46109e-06

*RES
1 *30:8 *102:D 0.394615
2 *30:7 *30:8 6
3 *30:6 *30:7 1.11607
4 *30:5 *30:6 5
5 *30:3 *30:5 4.07143
6 *30:2 *91:Z 0.292308
7 *30:1 *30:3 5
8 *30:0 *30:2 6
9 *30:0 *30:1 0.116071
*END

*D_NET *31 0.000533909

*CONN
*I *101:D I *C 47 44 *L 0.00112 *D DFF_X2
*I *87:Z O *C 46 43 *L 0 *D XOR2_X1

*CAP
1 *31:0 2.38443e-05
2 *31:1 6.30618e-05
3 *31:2 1.53553e-05
4 *31:3 3.92175e-05
5 *101:D 1.53553e-05
6 *31:5 0.000143066
7 *31:6 0.000143066
8 *31:7 4.07863e-06
9 *31:8 2.79229e-05
10 *31:9 2.38443e-05
11 *31:10 1.75489e-05
12 *87:Z 1.75489e-05

*RES
1 *31:10 *87:Z 0.818462
2 *31:9 *31:10 6
3 *31:8 *31:9 0.678571
4 *31:7 *31:8 0.116071
5 *31:6 *31:7 5
6 *31:5 *31:6 4.07143
7 *31:3 *31:5 5
8 *31:2 *101:D 0.716154
9 *31:1 *31:3 1.11607
10 *31:0 *31:2 6
11 *31:0 *31:1 0.678571
*END

*D_NET *32 0.000873098

*CONN
*I *100:D I *C 44 45 *L 0.00112 *D DFF_X2
*I *83:Z O *C 42 43 *L 0 *D XOR2_X1

*CAP
1 *32:0 3.10603e-05
2 *32:1 3.10603e-05
3 *32:2 8.46109e-06
4 *32:3 4.26687e-05
5 *100:D 8.46109e-06
6 *32:5 4.26687e-05
7 *32:6 0.000160802
8 *32:7 0.000160802
9 *32:8 0.000148085
10 *32:9 0.000148085
11 *32:10 4.07863e-06
12 *32:11 2.79229e-05
13 *32:12 2.38443e-05
14 *32:13 1.75489e-05
15 *83:Z 1.75489e-05

*RES
1 *32:13 *83:Z 0.818462
2 *32:12 *32:13 6
3 *32:11 *32:12 0.678571
4 *32:10 *32:11 0.116071
5 *32:9 *32:10 5
6 *32:8 *32:9 4.21429
7 *32:7 *32:8 5
8 *32:6 *32:7 1.89
9 *32:5 *32:6 5
10 *32:3 *32:5 1.21429
11 *32:2 *100:D 0.394615
12 *32:1 *32:3 5
13 *32:0 *32:2 6
14 *32:0 *32:1 0.883929
*END

*D_NET *33 0.000648153

*CONN
*I *99:D I *C 44 42 *L 0.00112 *D DFF_X2
*I *79:Z O *C 43 43 *L 0 *D XOR2_X1

*CAP
1 *33:0 4.07863e-06
2 *33:1 4.07863e-06
3 *33:2 8.46109e-06
4 *33:3 0.000143066
5 *99:D 8.46109e-06
6 *33:5 0.000143066
7 *33:6 0.000162204
8 *33:7 0.000162204
9 *33:8 6.26748e-06
10 *79:Z 6.26748e-06

*RES
1 *33:8 *79:Z 0.292308
2 *33:7 *33:8 6
3 *33:6 *33:7 4.61607
4 *33:5 *33:6 5
5 *33:3 *33:5 4.07143
6 *33:2 *99:D 0.394615
7 *33:1 *33:3 5
8 *33:0 *33:2 6
9 *33:0 *33:1 0.116071
*END

*D_NET *34 0.0013101

*CONN
*I *78:ZN O *C 45 41 *L 0 *D INV_X4
*I *98:D I *C 41 41 *L 0.00112 *D DFF_X2

*CAP
1 *34:0 2.38443e-05
2 *34:1 3.23153e-05
3 *34:2 1.97425e-05
4 *34:3 8.47099e-06
5 *78:ZN 1.97425e-05
6 *34:5 0.000524574
7 *34:6 0.000524574
8 *34:7 3.92175e-05
9 *34:8 6.30618e-05
10 *34:9 2.38443e-05
11 *34:10 1.53553e-05
12 *98:D 1.53553e-05

*RES
1 *34:10 *98:D 0.716154
2 *34:9 *34:10 6
3 *34:8 *34:9 0.678571
4 *34:7 *34:8 1.11607
5 *34:6 *34:7 5
6 *34:5 *34:6 14.9286
7 *34:3 *34:5 5
8 *34:2 *78:ZN 0.920769
9 *34:1 *34:3 0.241071
10 *34:0 *34:2 6
11 *34:0 *34:1 0.678571
*END

*D_NET *35 0.00045172

*CONN
*I *74:ZN O *C 44 46 *L 0 *D INV_X4
*I *97:D I *C 43 46 *L 0.00112 *D DFF_X2

*CAP
1 *35:0 2.38443e-05
2 *35:1 3.29427e-05
3 *35:2 1.97425e-05
4 *35:3 9.09847e-06
5 *74:ZN 1.97425e-05
6 *35:5 0.000143066
7 *35:6 0.000143066
8 *35:7 2.16481e-05
9 *35:8 2.16481e-05
10 *35:9 8.46109e-06
11 *97:D 8.46109e-06

*RES
1 *35:9 *97:D 0.394615
2 *35:8 *35:9 6
3 *35:7 *35:8 0.616071
4 *35:6 *35:7 5
5 *35:5 *35:6 4.07143
6 *35:3 *35:5 5
7 *35:2 *74:ZN 0.920769
8 *35:1 *35:3 0.258929
9 *35:0 *35:2 6
10 *35:0 *35:1 0.678571
*END

*D_NET *36 0.000404032

*CONN
*I *70:ZN O *C 49 41 *L 0 *D INV_X4
*I *96:D I *C 48 41 *L 0.00112 *D DFF_X2

*CAP
1 *36:0 2.38443e-05
2 *36:1 5.05122e-05
3 *36:2 1.97425e-05
4 *36:3 2.66679e-05
5 *70:ZN 1.97425e-05
6 *36:5 0.000119221
7 *36:6 0.000119221
8 *36:7 4.07863e-06
9 *36:8 4.07863e-06
10 *36:9 8.46109e-06
11 *96:D 8.46109e-06

*RES
1 *36:9 *96:D 0.394615
2 *36:8 *36:9 6
3 *36:7 *36:8 0.116071
4 *36:6 *36:7 5
5 *36:5 *36:6 3.39286
6 *36:3 *36:5 5
7 *36:2 *70:ZN 0.920769
8 *36:1 *36:3 0.758929
9 *36:0 *36:2 6
10 *36:0 *36:1 0.678571
*END

*D_NET *37 0.000404032

*CONN
*I *66:ZN O *C 44 48 *L 0 *D INV_X4
*I *95:D I *C 43 48 *L 0.00112 *D DFF_X2

*CAP
1 *37:0 2.38443e-05
2 *37:1 3.29427e-05
3 *37:2 1.97425e-05
4 *37:3 9.09847e-06
5 *66:ZN 1.97425e-05
6 *37:5 0.000119221
7 *37:6 0.000119221
8 *37:7 2.16481e-05
9 *37:8 2.16481e-05
10 *37:9 8.46109e-06
11 *95:D 8.46109e-06

*RES
1 *37:9 *95:D 0.394615
2 *37:8 *37:9 6
3 *37:7 *37:8 0.616071
4 *37:6 *37:7 5
5 *37:5 *37:6 3.39286
6 *37:3 *37:5 5
7 *37:2 *66:ZN 0.920769
8 *37:1 *37:3 0.258929
9 *37:0 *37:2 6
10 *37:0 *37:1 0.678571
*END

*D_NET *38 0.00138163

*CONN
*I *92:B2 I *C 49 47 *L 0.000668 *D AOI22_X1
*I *91:A I *C 49 46 *L 0.00124 *D XOR2_X1
*I *90:ZN O *C 48 45 *L 0 *D INV_X2

*CAP
1 *38:0 4.76885e-05
2 *38:1 0.000196088
3 *38:2 4.07386e-06
4 *38:3 0.000314054
5 *92:B2 4.07386e-06
6 *38:5 2.38443e-05
7 *38:6 0.000141811
8 *38:7 1.19082e-05
9 *38:8 0.000143066
10 *91:A 1.19082e-05
11 *38:10 0.000143066
12 *38:11 7.87488e-05
13 *38:12 0.000150282
14 *38:13 7.15328e-05
15 *38:14 1.97425e-05
16 *90:ZN 1.97425e-05

*RES
1 *38:14 *90:ZN 0.920769
2 *38:13 *38:14 6
3 *38:12 *38:13 2.03571
4 *38:11 *38:12 2.24107
5 *38:10 *38:11 5
6 *38:8 *38:10 4.07143
7 *38:7 *91:A 0.555385
8 *38:6 *38:8 5
9 *38:5 *38:7 6
10 *38:3 *38:6 4.03571
11 *38:3 *38:5 0.678571
12 *38:2 *92:B2 0.19
13 *38:1 *38:3 4.22321
14 *38:0 *38:2 6
15 *38:0 *38:1 1.35714
*END

*D_NET *39 0.000525052

*CONN
*I *88:B2 I *C 45 44 *L 0.000668 *D AOI22_X1
*I *87:A I *C 46 43 *L 0.00124 *D XOR2_X1
*I *86:ZN O *C 45 45 *L 0 *D INV_X2

*CAP
1 *39:0 6.61992e-05
2 *39:1 5.05122e-05
3 *39:2 4.2355e-05
4 *39:3 2.66679e-05
5 *39:4 4.07386e-06
6 *39:5 1.19082e-05
7 *39:6 4.64336e-05
8 *88:B2 4.07386e-06
9 *87:A 1.19082e-05
10 *39:9 4.64336e-05
11 *39:10 3.57337e-05
12 *39:11 3.57337e-05
13 *39:12 1.25496e-06
14 *39:13 1.25496e-06
15 *39:14 2.66679e-05
16 *39:15 5.05122e-05
17 *39:16 2.38443e-05
18 *39:17 1.97425e-05
19 *86:ZN 1.97425e-05

*RES
1 *39:17 *86:ZN 0.920769
2 *39:16 *39:17 6
3 *39:15 *39:16 0.678571
4 *39:14 *39:15 0.758929
5 *39:13 *39:14 5
6 *39:12 *39:13 0.0357143
7 *39:11 *39:12 5
8 *39:10 *39:11 0.42
9 *39:9 *39:10 5
10 *39:6 *39:9 1.32143
11 *39:5 *87:A 0.555385
12 *39:4 *88:B2 0.19
13 *39:3 *39:6 5
14 *39:2 *39:5 6
15 *39:1 *39:4 6
16 *39:1 *39:3 0.758929
17 *39:0 *39:2 1.20536
18 *39:0 *39:1 0.678571
*END

*D_NET *40 0.00158807

*CONN
*I *84:B2 I *C 41 44 *L 0.000668 *D AOI22_X1
*I *83:A I *C 41 43 *L 0.00124 *D XOR2_X1
*I *82:ZN O *C 45 42 *L 0 *D INV_X2

*CAP
1 *40:0 6.61992e-05
2 *40:1 0.00019044
3 *40:2 4.2355e-05
4 *40:3 0.000166596
5 *40:4 4.07386e-06
6 *40:5 1.19082e-05
7 *40:6 0.000381508
8 *84:B2 4.07386e-06
9 *83:A 1.19082e-05
10 *40:9 0.000381508
11 *40:10 9.63183e-05
12 *40:11 0.000144007
13 *40:12 4.76885e-05
14 *40:13 1.97425e-05
15 *82:ZN 1.97425e-05

*RES
1 *40:13 *82:ZN 0.920769
2 *40:12 *40:13 6
3 *40:11 *40:12 1.35714
4 *40:10 *40:11 2.74107
5 *40:9 *40:10 5
6 *40:6 *40:9 10.8571
7 *40:5 *83:A 0.555385
8 *40:4 *84:B2 0.19
9 *40:3 *40:6 5
10 *40:2 *40:5 6
11 *40:1 *40:4 6
12 *40:1 *40:3 4.74107
13 *40:0 *40:2 1.20536
14 *40:0 *40:1 0.678571
*END

*D_NET *41 0.000888429

*CONN
*I *80:B2 I *C 44 44 *L 0.000668 *D AOI22_X1
*I *76:ZN O *C 45 42 *L 0 *D INV_X4
*I *79:A I *C 43 43 *L 0.00124 *D XOR2_X1

*CAP
1 *41:0 4.36099e-05
2 *41:1 0.000192637
3 *41:2 4.07386e-06
4 *41:3 0.000220559
5 *41:4 0.000119221
6 *80:B2 4.07386e-06
7 *41:6 7.15328e-05
8 *41:7 0.000119221
9 *41:8 1.97425e-05
10 *41:9 1.25496e-06
11 *76:ZN 1.97425e-05
12 *41:11 2.50992e-05
13 *41:12 2.38443e-05
14 *41:13 1.19082e-05
15 *79:A 1.19082e-05

*RES
1 *41:13 *79:A 0.555385
2 *41:12 *41:13 6
3 *41:11 *41:12 0.678571
4 *41:9 *41:11 0.0357143
5 *41:8 *76:ZN 0.920769
6 *41:7 *41:9 5
7 *41:6 *41:8 6
8 *41:4 *41:7 3.39286
9 *41:3 *41:6 2.03571
10 *41:2 *80:B2 0.19
11 *41:1 *41:4 5
12 *41:1 *41:3 4.24107
13 *41:0 *41:2 6
14 *41:0 *41:1 1.24107
*END

*D_NET *43 0.000279764

*CONN
*I *63:ZN O *C 40 45 *L 0 *D INV_X4
*I *64:A I *C 41 45 *L 0.00187 *D INV_X4

*CAP
1 *43:0 0.000100397
2 *43:1 5.27084e-05
3 *43:2 4.76885e-05
4 *43:3 1.97425e-05
5 *43:4 1.97425e-05
6 *63:ZN 1.97425e-05
7 *64:A 1.97425e-05

*RES
1 *43:4 *64:A 0.920769
2 *43:3 *63:ZN 0.920769
3 *43:2 *43:4 6
4 *43:1 *43:3 6
5 *43:0 *43:2 1.35714
6 *43:0 *43:1 1.5
*END

*D_NET *44 0.000375141

*CONN
*I *65:ZN O *C 44 48 *L 0 *D INV_X4
*I *66:A I *C 44 47 *L 0.00187 *D INV_X4

*CAP
1 *44:0 2.38443e-05
2 *44:1 6.80817e-05
3 *44:2 1.97425e-05
4 *44:3 4.42374e-05
5 *65:ZN 1.97425e-05
6 *44:5 4.76885e-05
7 *44:6 4.76885e-05
8 *44:7 8.47099e-06
9 *44:8 3.23153e-05
10 *44:9 2.38443e-05
11 *44:10 1.97425e-05
12 *66:A 1.97425e-05

*RES
1 *44:10 *66:A 0.920769
2 *44:9 *44:10 6
3 *44:8 *44:9 0.678571
4 *44:7 *44:8 0.241071
5 *44:6 *44:7 5
6 *44:5 *44:6 1.35714
7 *44:3 *44:5 5
8 *44:2 *65:ZN 0.920769
9 *44:1 *44:3 1.25893
10 *44:0 *44:2 6
11 *44:0 *44:1 0.678571
*END

*D_NET *46 0.00015305

*CONN
*I *67:ZN O *C 50 46 *L 0 *D INV_X4
*I *68:A I *C 50 47 *L 0.00187 *D INV_X4

*CAP
1 *46:0 5.27084e-05
2 *46:1 5.27084e-05
3 *46:2 1.97425e-05
4 *46:3 4.07386e-06
5 *67:ZN 1.97425e-05
6 *68:A 4.07386e-06

*RES
1 *46:3 *68:A 0.19
2 *46:2 *67:ZN 0.920769
3 *46:1 *46:3 6
4 *46:0 *46:2 6
5 *46:0 *46:1 1.5
*END

*D_NET *47 0.000279764

*CONN
*I *70:A I *C 49 41 *L 0.00187 *D INV_X4
*I *69:ZN O *C 50 41 *L 0 *D INV_X4

*CAP
1 *47:0 0.000100397
2 *47:1 5.27084e-05
3 *47:2 4.76885e-05
4 *47:3 1.97425e-05
5 *47:4 1.97425e-05
6 *70:A 1.97425e-05
7 *69:ZN 1.97425e-05

*RES
1 *47:4 *69:ZN 0.920769
2 *47:3 *70:A 0.920769
3 *47:2 *47:4 6
4 *47:1 *47:3 6
5 *47:0 *47:2 1.35714
6 *47:0 *47:1 1.5
*END

*D_NET *49 0.000899715

*CONN
*I *72:A I *C 44 49 *L 0.00187 *D INV_X4
*I *71:ZN O *C 41 49 *L 0 *D INV_X4

*CAP
1 *49:0 2.38443e-05
2 *49:1 4.98847e-05
3 *49:2 1.97425e-05
4 *49:3 2.60405e-05
5 *72:A 1.97425e-05
6 *49:5 0.000309975
7 *49:6 0.000309975
8 *49:7 2.66679e-05
9 *49:8 5.05122e-05
10 *49:9 2.38443e-05
11 *49:10 1.97425e-05
12 *71:ZN 1.97425e-05

*RES
1 *49:10 *71:ZN 0.920769
2 *49:9 *49:10 6
3 *49:8 *49:9 0.678571
4 *49:7 *49:8 0.758929
5 *49:6 *49:7 5
6 *49:5 *49:6 8.82143
7 *49:3 *49:5 5
8 *49:2 *72:A 0.920769
9 *49:1 *49:3 0.741071
10 *49:0 *49:2 6
11 *49:0 *49:1 0.678571
*END

*D_NET *50 0.000409025

*CONN
*I *73:ZN O *C 44 46 *L 0 *D INV_X4
*I *74:A I *C 44 47 *L 0.00187 *D INV_X4

*CAP
1 *50:0 2.38443e-05
2 *50:1 3.23153e-05
3 *50:2 1.97425e-05
4 *50:3 8.47099e-06
5 *73:ZN 1.97425e-05
6 *50:5 7.15328e-05
7 *50:6 7.15328e-05
8 *50:7 6.11794e-05
9 *50:8 6.11794e-05
10 *50:9 1.97425e-05
11 *74:A 1.97425e-05

*RES
1 *50:9 *74:A 0.920769
2 *50:8 *50:9 6
3 *50:7 *50:8 1.74107
4 *50:6 *50:7 5
5 *50:5 *50:6 2.03571
6 *50:3 *50:5 5
7 *50:2 *73:ZN 0.920769
8 *50:1 *50:3 0.241071
9 *50:0 *50:2 6
10 *50:0 *50:1 0.678571
*END

*D_NET *51 0.000491853

*CONN
*I *76:A I *C 45 42 *L 0.00187 *D INV_X4
*I *75:ZN O *C 45 41 *L 0 *D INV_X4

*CAP
1 *51:0 0.000158753
2 *51:1 0.000206441
3 *51:2 1.97425e-05
4 *51:3 4.76885e-05
5 *76:A 1.97425e-05
6 *51:5 1.97425e-05
7 *75:ZN 1.97425e-05

*RES
1 *51:5 *75:ZN 0.920769
2 *51:3 *51:5 6
3 *51:2 *76:A 0.920769
4 *51:1 *51:3 1.35714
5 *51:0 *51:2 6
6 *51:0 *51:1 4.51786
*END

*D_NET *52 0.000279764

*CONN
*I *77:ZN O *C 45 41 *L 0 *D INV_X4
*I *78:A I *C 45 41 *L 0.00187 *D INV_X4

*CAP
1 *52:0 4.42374e-05
2 *52:1 4.42374e-05
3 *52:2 1.97425e-05
4 *52:3 2.38443e-05
5 *77:ZN 1.97425e-05
6 *52:5 2.38443e-05
7 *52:6 8.47099e-06
8 *52:7 3.23153e-05
9 *52:8 2.38443e-05
10 *52:9 1.97425e-05
11 *78:A 1.97425e-05

*RES
1 *52:9 *78:A 0.920769
2 *52:8 *52:9 6
3 *52:7 *52:8 0.678571
4 *52:6 *52:7 0.241071
5 *52:5 *52:6 5
6 *52:3 *52:5 0.678571
7 *52:2 *77:ZN 0.920769
8 *52:1 *52:3 5
9 *52:0 *52:2 6
10 *52:0 *52:1 1.25893
*END

*D_NET *53 0.00143118

*CONN
*I *80:B1 I *C 44 44 *L 0.000698 *D AOI22_X1
*I *81:Z O *C 44 41 *L 0 *D XOR2_X1
*I *79:B I *C 43 44 *L 0.00135 *D XOR2_X1

*CAP
1 *53:0 4.76885e-05
2 *53:1 0.000430138
3 *53:2 4.07386e-06
4 *53:3 9.09847e-06
5 *53:4 0.00042104
6 *80:B1 4.07386e-06
7 *53:6 0.00016691
8 *53:7 4.76885e-05
9 *53:8 0.00016691
10 *53:9 1.75489e-05
11 *53:10 4.07863e-06
12 *81:Z 1.75489e-05
13 *53:12 2.79229e-05
14 *53:13 2.38443e-05
15 *53:14 2.13094e-05
16 *79:B 2.13094e-05

*RES
1 *53:14 *79:B 0.993846
2 *53:13 *53:14 6
3 *53:12 *53:13 0.678571
4 *53:10 *53:12 0.116071
5 *53:9 *81:Z 0.818462
6 *53:8 *53:10 5
7 *53:7 *53:9 6
8 *53:6 *53:8 4.75
9 *53:4 *53:7 1.35714
10 *53:3 *53:6 5
11 *53:2 *80:B1 0.19
12 *53:1 *53:4 10.625
13 *53:1 *53:3 0.258929
14 *53:0 *53:2 6
15 *53:0 *53:1 1.35714
*END

*D_NET *54 0.000792447

*CONN
*I *82:A I *C 45 42 *L 0.00098 *D INV_X2
*I *80:ZN O *C 44 44 *L 0 *D AOI22_X1

*CAP
1 *54:0 2.38443e-05
2 *54:1 0.000102593
3 *54:2 1.97425e-05
4 *54:3 7.87488e-05
5 *82:A 1.97425e-05
6 *54:5 9.53771e-05
7 *54:6 9.53771e-05
8 *54:7 0.000172243